*SPEF "ieee 1481-1999"
*DESIGN "counter"
*DATE "08:03:56 Tuesday March 04, 2025"
*VENDOR "The OpenROAD Project"
*PROGRAM "OpenROAD"
*VERSION "edf00dff99f6c40d67a30c0e22a8191c5d2ed9d6"
*DESIGN_FLOW "NAME_SCOPE LOCAL" "PIN_CAP NONE"
*DIVIDER /
*DELIMITER :
*BUS_DELIMITER []
*T_UNIT 1 NS
*C_UNIT 1 PF
*R_UNIT 1 OHM
*L_UNIT 1 HENRY

*NAME_MAP
*1 addr0[0]
*2 addr0[1]
*3 addr0[2]
*4 addr0[3]
*5 addr0[4]
*6 addr0[5]
*7 addr0[6]
*8 addr0[7]
*9 clk
*10 csb0
*11 din0[0]
*12 din0[10]
*13 din0[11]
*14 din0[12]
*15 din0[13]
*16 din0[14]
*17 din0[15]
*18 din0[1]
*19 din0[2]
*20 din0[3]
*21 din0[4]
*22 din0[5]
*23 din0[6]
*24 din0[7]
*25 din0[8]
*26 din0[9]
*27 rst
*28 sine_out[0]
*29 sine_out[10]
*30 sine_out[11]
*31 sine_out[12]
*32 sine_out[13]
*33 sine_out[14]
*34 sine_out[15]
*35 sine_out[1]
*36 sine_out[2]
*37 sine_out[3]
*38 sine_out[4]
*39 sine_out[5]
*40 sine_out[6]
*41 sine_out[7]
*42 sine_out[8]
*43 sine_out[9]
*46 _000_
*47 _001_
*48 _002_
*49 _003_
*50 _004_
*51 _005_
*52 _006_
*53 _007_
*54 _008_
*55 _009_
*56 _010_
*57 _011_
*58 _012_
*59 _013_
*60 _014_
*61 _015_
*62 _016_
*63 _017_
*64 _018_
*65 _019_
*66 _020_
*67 _021_
*68 _022_
*69 _023_
*70 _024_
*71 _025_
*72 _026_
*73 _027_
*74 _028_
*75 _029_
*76 _030_
*77 _031_
*78 _032_
*79 _033_
*80 _034_
*81 _035_
*82 _036_
*83 _037_
*84 _038_
*85 clknet_0_clk
*86 clknet_1_0__leaf_clk
*87 clknet_1_1__leaf_clk
*88 net1
*89 net10
*90 net11
*91 net12
*92 net13
*93 net14
*94 net15
*95 net16
*96 net17
*97 net18
*98 net19
*99 net2
*100 net20
*101 net21
*102 net22
*103 net23
*104 net24
*105 net25
*106 net26
*107 net27
*108 net28
*109 net29
*110 net3
*111 net30
*112 net31
*113 net32
*114 net33
*115 net34
*116 net35
*117 net36
*118 net37
*119 net38
*120 net39
*121 net4
*122 net40
*123 net41
*124 net42
*125 net43
*126 net44
*127 net45
*128 net46
*129 net47
*130 net48
*131 net49
*132 net5
*133 net50
*134 net51
*135 net52
*136 net53
*137 net54
*138 net55
*139 net56
*140 net57
*141 net58
*142 net59
*143 net6
*144 net60
*145 net61
*146 net62
*147 net63
*148 net64
*149 net65
*150 net66
*151 net67
*152 net68
*153 net69
*154 net7
*155 net70
*156 net71
*157 net72
*158 net73
*159 net74
*160 net75
*161 net76
*162 net77
*163 net78
*164 net79
*165 net8
*166 net80
*167 net81
*168 net82
*169 net83
*170 net84
*171 net85
*172 net86
*173 net87
*174 net88
*175 net89
*176 net9
*177 net90
*178 net91
*179 net92
*180 net93
*181 net94
*182 sine_out_temp\[0\]
*183 sine_out_temp\[10\]
*184 sine_out_temp\[11\]
*185 sine_out_temp\[12\]
*186 sine_out_temp\[13\]
*187 sine_out_temp\[14\]
*188 sine_out_temp\[15\]
*189 sine_out_temp\[1\]
*190 sine_out_temp\[2\]
*191 sine_out_temp\[3\]
*192 sine_out_temp\[4\]
*193 sine_out_temp\[5\]
*194 sine_out_temp\[6\]
*195 sine_out_temp\[7\]
*196 sine_out_temp\[8\]
*197 sine_out_temp\[9\]
*198 tcout\[0\]
*199 tcout\[1\]
*200 tcout\[2\]
*201 tcout\[3\]
*202 tcout\[4\]
*203 tcout\[5\]
*204 tcout\[6\]
*205 tcout\[7\]
*206 ANTENNA_1
*207 ANTENNA_2
*208 ANTENNA_3
*209 ANTENNA_4
*210 ANTENNA__068__A
*211 ANTENNA__068__Y
*212 ANTENNA__069__A
*213 ANTENNA__070__A
*214 ANTENNA__071__A
*215 ANTENNA__072__A
*216 ANTENNA__073__A
*217 ANTENNA__074__A
*218 ANTENNA__075__A
*219 ANTENNA__079__CLK
*220 ANTENNA__080__CLK
*221 ANTENNA__081__CLK
*222 ANTENNA__082__CLK
*223 ANTENNA__083__CLK
*224 ANTENNA__084__CLK
*225 ANTENNA__085__CLK
*226 ANTENNA__086__CLK
*227 ANTENNA__087__CLK
*228 ANTENNA__088__CLK
*229 ANTENNA__089__CLK
*230 ANTENNA__090__CLK
*231 ANTENNA__091__CLK
*232 ANTENNA__092__CLK
*233 ANTENNA__092__RESET_B
*234 ANTENNA__093__CLK
*235 ANTENNA__094__CLK
*236 ANTENNA__095__CLK
*237 ANTENNA__096__CLK
*238 ANTENNA__097__CLK
*239 ANTENNA__098__CLK
*240 ANTENNA__099__CLK
*241 ANTENNA__100__CLK
*242 ANTENNA__101__CLK
*243 ANTENNA__102__CLK
*244 ANTENNA_clkbuf_0_clk_A
*245 ANTENNA_clkbuf_0_clk_X
*246 ANTENNA_clkbuf_1_0__f_clk_A
*247 ANTENNA_clkbuf_1_0__f_clk_X
*248 ANTENNA_clkbuf_1_1__f_clk_A
*249 ANTENNA_clkbuf_1_1__f_clk_X
*250 ANTENNA_clkload0_A
*251 ANTENNA_fanout91_A
*252 ANTENNA_fanout92_A
*253 ANTENNA_fanout93_X
*254 ANTENNA_input10_A
*255 ANTENNA_input11_A
*256 ANTENNA_input12_A
*257 ANTENNA_input13_A
*258 ANTENNA_input14_A
*259 ANTENNA_input15_A
*260 ANTENNA_input16_A
*261 ANTENNA_input17_A
*262 ANTENNA_input18_A
*263 ANTENNA_input19_A
*264 ANTENNA_input1_A
*265 ANTENNA_input20_A
*266 ANTENNA_input21_A
*267 ANTENNA_input22_A
*268 ANTENNA_input23_A
*269 ANTENNA_input24_A
*270 ANTENNA_input25_A
*271 ANTENNA_input26_A
*272 ANTENNA_input2_A
*273 ANTENNA_input3_A
*274 ANTENNA_input4_A
*275 ANTENNA_input5_A
*276 ANTENNA_input6_A
*277 ANTENNA_input7_A
*278 ANTENNA_input8_A
*279 ANTENNA_input9_A
*280 ANTENNA_max_cap70_X
*281 ANTENNA_max_cap71_X
*282 ANTENNA_max_cap73_X
*283 ANTENNA_max_cap83_X
*284 ANTENNA_max_cap86_X
*285 ANTENNA_max_cap90_X
*286 ANTENNA_mem_i_addr1\[0\]
*287 ANTENNA_mem_i_addr1\[1\]
*288 ANTENNA_mem_i_addr1\[2\]
*289 ANTENNA_mem_i_addr1\[5\]
*290 ANTENNA_mem_i_addr1\[6\]
*291 ANTENNA_mem_i_addr1\[7\]
*292 ANTENNA_mem_i_clk0
*293 ANTENNA_mem_i_clk1
*294 FILLER_0_1005
*295 FILLER_0_1009
*296 FILLER_0_1021
*297 FILLER_0_1033
*298 FILLER_0_1037
*299 FILLER_0_1049
*300 FILLER_0_1061
*301 FILLER_0_1065
*302 FILLER_0_1077
*303 FILLER_0_1089
*304 FILLER_0_109
*305 FILLER_0_1093
*306 FILLER_0_1105
*307 FILLER_0_1117
*308 FILLER_0_1121
*309 FILLER_0_113
*310 FILLER_0_1133
*311 FILLER_0_1145
*312 FILLER_0_1149
*313 FILLER_0_1161
*314 FILLER_0_1173
*315 FILLER_0_1177
*316 FILLER_0_1189
*317 FILLER_0_125
*318 FILLER_0_137
*319 FILLER_0_141
*320 FILLER_0_15
*321 FILLER_0_153
*322 FILLER_0_165
*323 FILLER_0_169
*324 FILLER_0_181
*325 FILLER_0_193
*326 FILLER_0_197
*327 FILLER_0_209
*328 FILLER_0_221
*329 FILLER_0_225
*330 FILLER_0_237
*331 FILLER_0_244
*332 FILLER_0_258
*333 FILLER_0_266
*334 FILLER_0_27
*335 FILLER_0_272
*336 FILLER_0_286
*337 FILLER_0_29
*338 FILLER_0_294
*339 FILLER_0_3
*340 FILLER_0_300
*341 FILLER_0_307
*342 FILLER_0_309
*343 FILLER_0_315
*344 FILLER_0_321
*345 FILLER_0_329
*346 FILLER_0_335
*347 FILLER_0_337
*348 FILLER_0_343
*349 FILLER_0_349
*350 FILLER_0_357
*351 FILLER_0_363
*352 FILLER_0_365
*353 FILLER_0_371
*354 FILLER_0_377
*355 FILLER_0_384
*356 FILLER_0_398
*357 FILLER_0_406
*358 FILLER_0_41
*359 FILLER_0_412
*360 FILLER_0_426
*361 FILLER_0_434
*362 FILLER_0_440
*363 FILLER_0_447
*364 FILLER_0_449
*365 FILLER_0_455
*366 FILLER_0_461
*367 FILLER_0_473
*368 FILLER_0_477
*369 FILLER_0_489
*370 FILLER_0_501
*371 FILLER_0_505
*372 FILLER_0_517
*373 FILLER_0_529
*374 FILLER_0_53
*375 FILLER_0_533
*376 FILLER_0_545
*377 FILLER_0_557
*378 FILLER_0_561
*379 FILLER_0_57
*380 FILLER_0_573
*381 FILLER_0_585
*382 FILLER_0_589
*383 FILLER_0_601
*384 FILLER_0_613
*385 FILLER_0_617
*386 FILLER_0_629
*387 FILLER_0_641
*388 FILLER_0_645
*389 FILLER_0_657
*390 FILLER_0_669
*391 FILLER_0_673
*392 FILLER_0_685
*393 FILLER_0_69
*394 FILLER_0_697
*395 FILLER_0_701
*396 FILLER_0_713
*397 FILLER_0_725
*398 FILLER_0_729
*399 FILLER_0_741
*400 FILLER_0_753
*401 FILLER_0_757
*402 FILLER_0_769
*403 FILLER_0_781
*404 FILLER_0_785
*405 FILLER_0_797
*406 FILLER_0_809
*407 FILLER_0_81
*408 FILLER_0_813
*409 FILLER_0_825
*410 FILLER_0_837
*411 FILLER_0_841
*412 FILLER_0_85
*413 FILLER_0_853
*414 FILLER_0_865
*415 FILLER_0_869
*416 FILLER_0_881
*417 FILLER_0_893
*418 FILLER_0_897
*419 FILLER_0_909
*420 FILLER_0_921
*421 FILLER_0_925
*422 FILLER_0_937
*423 FILLER_0_949
*424 FILLER_0_953
*425 FILLER_0_965
*426 FILLER_0_97
*427 FILLER_0_977
*428 FILLER_0_981
*429 FILLER_0_993
*430 FILLER_100_1144
*431 FILLER_100_1148
*432 FILLER_100_1160
*433 FILLER_100_1172
*434 FILLER_100_1184
*435 FILLER_100_15
*436 FILLER_100_27
*437 FILLER_100_29
*438 FILLER_100_3
*439 FILLER_100_41
*440 FILLER_100_53
*441 FILLER_100_65
*442 FILLER_101_1128
*443 FILLER_101_1140
*444 FILLER_101_1152
*445 FILLER_101_1164
*446 FILLER_101_1172
*447 FILLER_101_1176
*448 FILLER_101_1188
*449 FILLER_101_15
*450 FILLER_101_27
*451 FILLER_101_3
*452 FILLER_101_39
*453 FILLER_101_51
*454 FILLER_101_55
*455 FILLER_101_57
*456 FILLER_101_69
*457 FILLER_102_1122
*458 FILLER_102_1134
*459 FILLER_102_1146
*460 FILLER_102_1148
*461 FILLER_102_1160
*462 FILLER_102_1172
*463 FILLER_102_1184
*464 FILLER_102_15
*465 FILLER_102_27
*466 FILLER_102_29
*467 FILLER_102_3
*468 FILLER_102_41
*469 FILLER_102_53
*470 FILLER_102_65
*471 FILLER_103_1122
*472 FILLER_103_1134
*473 FILLER_103_1146
*474 FILLER_103_1158
*475 FILLER_103_1170
*476 FILLER_103_1174
*477 FILLER_103_1176
*478 FILLER_103_1188
*479 FILLER_103_15
*480 FILLER_103_27
*481 FILLER_103_3
*482 FILLER_103_39
*483 FILLER_103_51
*484 FILLER_103_55
*485 FILLER_103_57
*486 FILLER_103_69
*487 FILLER_104_1122
*488 FILLER_104_1134
*489 FILLER_104_1146
*490 FILLER_104_1148
*491 FILLER_104_1160
*492 FILLER_104_1172
*493 FILLER_104_1184
*494 FILLER_104_15
*495 FILLER_104_27
*496 FILLER_104_29
*497 FILLER_104_3
*498 FILLER_104_41
*499 FILLER_104_53
*500 FILLER_104_65
*501 FILLER_105_1122
*502 FILLER_105_1134
*503 FILLER_105_1146
*504 FILLER_105_1158
*505 FILLER_105_1170
*506 FILLER_105_1174
*507 FILLER_105_1176
*508 FILLER_105_1188
*509 FILLER_105_15
*510 FILLER_105_27
*511 FILLER_105_3
*512 FILLER_105_39
*513 FILLER_105_51
*514 FILLER_105_55
*515 FILLER_105_57
*516 FILLER_105_69
*517 FILLER_106_1125
*518 FILLER_106_1137
*519 FILLER_106_1145
*520 FILLER_106_1148
*521 FILLER_106_1160
*522 FILLER_106_1172
*523 FILLER_106_1184
*524 FILLER_106_15
*525 FILLER_106_27
*526 FILLER_106_29
*527 FILLER_106_3
*528 FILLER_106_41
*529 FILLER_106_53
*530 FILLER_106_65
*531 FILLER_107_1122
*532 FILLER_107_1134
*533 FILLER_107_1146
*534 FILLER_107_1158
*535 FILLER_107_1170
*536 FILLER_107_1174
*537 FILLER_107_1176
*538 FILLER_107_1188
*539 FILLER_107_15
*540 FILLER_107_27
*541 FILLER_107_3
*542 FILLER_107_39
*543 FILLER_107_51
*544 FILLER_107_55
*545 FILLER_107_57
*546 FILLER_107_69
*547 FILLER_108_1122
*548 FILLER_108_1134
*549 FILLER_108_1146
*550 FILLER_108_1148
*551 FILLER_108_1160
*552 FILLER_108_1172
*553 FILLER_108_1184
*554 FILLER_108_15
*555 FILLER_108_27
*556 FILLER_108_29
*557 FILLER_108_3
*558 FILLER_108_41
*559 FILLER_108_53
*560 FILLER_108_65
*561 FILLER_109_1122
*562 FILLER_109_1134
*563 FILLER_109_1146
*564 FILLER_109_1158
*565 FILLER_109_1170
*566 FILLER_109_1174
*567 FILLER_109_1176
*568 FILLER_109_1188
*569 FILLER_109_15
*570 FILLER_109_27
*571 FILLER_109_3
*572 FILLER_109_39
*573 FILLER_109_51
*574 FILLER_109_55
*575 FILLER_109_57
*576 FILLER_109_69
*577 FILLER_10_1122
*578 FILLER_10_1134
*579 FILLER_10_1146
*580 FILLER_10_1148
*581 FILLER_10_1160
*582 FILLER_10_1172
*583 FILLER_10_1184
*584 FILLER_10_15
*585 FILLER_10_27
*586 FILLER_10_29
*587 FILLER_10_3
*588 FILLER_10_41
*589 FILLER_10_53
*590 FILLER_10_65
*591 FILLER_110_1122
*592 FILLER_110_1134
*593 FILLER_110_1146
*594 FILLER_110_1148
*595 FILLER_110_1160
*596 FILLER_110_1172
*597 FILLER_110_1184
*598 FILLER_110_15
*599 FILLER_110_27
*600 FILLER_110_29
*601 FILLER_110_3
*602 FILLER_110_41
*603 FILLER_110_53
*604 FILLER_110_65
*605 FILLER_111_1122
*606 FILLER_111_1134
*607 FILLER_111_1146
*608 FILLER_111_1158
*609 FILLER_111_1170
*610 FILLER_111_1174
*611 FILLER_111_1176
*612 FILLER_111_1188
*613 FILLER_111_15
*614 FILLER_111_27
*615 FILLER_111_3
*616 FILLER_111_39
*617 FILLER_111_51
*618 FILLER_111_55
*619 FILLER_111_57
*620 FILLER_111_69
*621 FILLER_112_1122
*622 FILLER_112_1134
*623 FILLER_112_1146
*624 FILLER_112_1148
*625 FILLER_112_1160
*626 FILLER_112_1172
*627 FILLER_112_1184
*628 FILLER_112_15
*629 FILLER_112_27
*630 FILLER_112_29
*631 FILLER_112_3
*632 FILLER_112_41
*633 FILLER_112_53
*634 FILLER_112_65
*635 FILLER_113_1122
*636 FILLER_113_1134
*637 FILLER_113_1146
*638 FILLER_113_1158
*639 FILLER_113_1170
*640 FILLER_113_1174
*641 FILLER_113_1176
*642 FILLER_113_1188
*643 FILLER_113_15
*644 FILLER_113_27
*645 FILLER_113_3
*646 FILLER_113_39
*647 FILLER_113_51
*648 FILLER_113_55
*649 FILLER_113_57
*650 FILLER_113_69
*651 FILLER_114_1122
*652 FILLER_114_1134
*653 FILLER_114_1146
*654 FILLER_114_1148
*655 FILLER_114_1160
*656 FILLER_114_1172
*657 FILLER_114_1184
*658 FILLER_114_15
*659 FILLER_114_27
*660 FILLER_114_29
*661 FILLER_114_3
*662 FILLER_114_41
*663 FILLER_114_53
*664 FILLER_114_65
*665 FILLER_115_1122
*666 FILLER_115_1134
*667 FILLER_115_1146
*668 FILLER_115_1158
*669 FILLER_115_1170
*670 FILLER_115_1174
*671 FILLER_115_1176
*672 FILLER_115_1188
*673 FILLER_115_15
*674 FILLER_115_27
*675 FILLER_115_3
*676 FILLER_115_39
*677 FILLER_115_51
*678 FILLER_115_55
*679 FILLER_115_57
*680 FILLER_115_69
*681 FILLER_116_1122
*682 FILLER_116_1134
*683 FILLER_116_1146
*684 FILLER_116_1148
*685 FILLER_116_1160
*686 FILLER_116_1172
*687 FILLER_116_1184
*688 FILLER_116_15
*689 FILLER_116_27
*690 FILLER_116_29
*691 FILLER_116_3
*692 FILLER_116_41
*693 FILLER_116_53
*694 FILLER_116_65
*695 FILLER_117_1007
*696 FILLER_117_1009
*697 FILLER_117_1021
*698 FILLER_117_1029
*699 FILLER_117_1032
*700 FILLER_117_1037
*701 FILLER_117_1049
*702 FILLER_117_1061
*703 FILLER_117_1065
*704 FILLER_117_1077
*705 FILLER_117_1089
*706 FILLER_117_109
*707 FILLER_117_1093
*708 FILLER_117_1105
*709 FILLER_117_1117
*710 FILLER_117_1121
*711 FILLER_117_113
*712 FILLER_117_1133
*713 FILLER_117_1145
*714 FILLER_117_1149
*715 FILLER_117_1161
*716 FILLER_117_1173
*717 FILLER_117_1177
*718 FILLER_117_1189
*719 FILLER_117_125
*720 FILLER_117_137
*721 FILLER_117_141
*722 FILLER_117_15
*723 FILLER_117_153
*724 FILLER_117_165
*725 FILLER_117_169
*726 FILLER_117_181
*727 FILLER_117_193
*728 FILLER_117_197
*729 FILLER_117_209
*730 FILLER_117_221
*731 FILLER_117_225
*732 FILLER_117_237
*733 FILLER_117_249
*734 FILLER_117_253
*735 FILLER_117_265
*736 FILLER_117_27
*737 FILLER_117_277
*738 FILLER_117_281
*739 FILLER_117_29
*740 FILLER_117_293
*741 FILLER_117_3
*742 FILLER_117_305
*743 FILLER_117_309
*744 FILLER_117_321
*745 FILLER_117_333
*746 FILLER_117_337
*747 FILLER_117_349
*748 FILLER_117_361
*749 FILLER_117_365
*750 FILLER_117_377
*751 FILLER_117_389
*752 FILLER_117_393
*753 FILLER_117_405
*754 FILLER_117_41
*755 FILLER_117_417
*756 FILLER_117_421
*757 FILLER_117_433
*758 FILLER_117_445
*759 FILLER_117_449
*760 FILLER_117_461
*761 FILLER_117_473
*762 FILLER_117_477
*763 FILLER_117_489
*764 FILLER_117_501
*765 FILLER_117_505
*766 FILLER_117_513
*767 FILLER_117_518
*768 FILLER_117_53
*769 FILLER_117_530
*770 FILLER_117_533
*771 FILLER_117_538
*772 FILLER_117_550
*773 FILLER_117_557
*774 FILLER_117_561
*775 FILLER_117_57
*776 FILLER_117_573
*777 FILLER_117_577
*778 FILLER_117_585
*779 FILLER_117_589
*780 FILLER_117_624
*781 FILLER_117_628
*782 FILLER_117_632
*783 FILLER_117_645
*784 FILLER_117_651
*785 FILLER_117_680
*786 FILLER_117_684
*787 FILLER_117_69
*788 FILLER_117_696
*789 FILLER_117_701
*790 FILLER_117_706
*791 FILLER_117_718
*792 FILLER_117_727
*793 FILLER_117_729
*794 FILLER_117_741
*795 FILLER_117_745
*796 FILLER_117_753
*797 FILLER_117_757
*798 FILLER_117_766
*799 FILLER_117_778
*800 FILLER_117_788
*801 FILLER_117_800
*802 FILLER_117_81
*803 FILLER_117_818
*804 FILLER_117_830
*805 FILLER_117_838
*806 FILLER_117_841
*807 FILLER_117_85
*808 FILLER_117_853
*809 FILLER_117_865
*810 FILLER_117_869
*811 FILLER_117_881
*812 FILLER_117_893
*813 FILLER_117_897
*814 FILLER_117_909
*815 FILLER_117_921
*816 FILLER_117_927
*817 FILLER_117_935
*818 FILLER_117_939
*819 FILLER_117_951
*820 FILLER_117_953
*821 FILLER_117_965
*822 FILLER_117_97
*823 FILLER_117_977
*824 FILLER_117_981
*825 FILLER_117_989
*826 FILLER_117_999
*827 FILLER_118_1005
*828 FILLER_118_1017
*829 FILLER_118_1029
*830 FILLER_118_1035
*831 FILLER_118_1037
*832 FILLER_118_1049
*833 FILLER_118_1061
*834 FILLER_118_1073
*835 FILLER_118_1085
*836 FILLER_118_109
*837 FILLER_118_1091
*838 FILLER_118_1093
*839 FILLER_118_1105
*840 FILLER_118_1117
*841 FILLER_118_1129
*842 FILLER_118_1141
*843 FILLER_118_1147
*844 FILLER_118_1149
*845 FILLER_118_1161
*846 FILLER_118_1173
*847 FILLER_118_1185
*848 FILLER_118_1189
*849 FILLER_118_121
*850 FILLER_118_133
*851 FILLER_118_139
*852 FILLER_118_141
*853 FILLER_118_15
*854 FILLER_118_153
*855 FILLER_118_165
*856 FILLER_118_177
*857 FILLER_118_189
*858 FILLER_118_195
*859 FILLER_118_197
*860 FILLER_118_209
*861 FILLER_118_221
*862 FILLER_118_233
*863 FILLER_118_245
*864 FILLER_118_251
*865 FILLER_118_253
*866 FILLER_118_265
*867 FILLER_118_27
*868 FILLER_118_277
*869 FILLER_118_289
*870 FILLER_118_29
*871 FILLER_118_3
*872 FILLER_118_301
*873 FILLER_118_307
*874 FILLER_118_309
*875 FILLER_118_321
*876 FILLER_118_333
*877 FILLER_118_345
*878 FILLER_118_357
*879 FILLER_118_363
*880 FILLER_118_365
*881 FILLER_118_377
*882 FILLER_118_389
*883 FILLER_118_401
*884 FILLER_118_41
*885 FILLER_118_413
*886 FILLER_118_419
*887 FILLER_118_421
*888 FILLER_118_433
*889 FILLER_118_445
*890 FILLER_118_457
*891 FILLER_118_469
*892 FILLER_118_475
*893 FILLER_118_477
*894 FILLER_118_489
*895 FILLER_118_501
*896 FILLER_118_505
*897 FILLER_118_517
*898 FILLER_118_527
*899 FILLER_118_53
*900 FILLER_118_531
*901 FILLER_118_533
*902 FILLER_118_545
*903 FILLER_118_549
*904 FILLER_118_572
*905 FILLER_118_584
*906 FILLER_118_589
*907 FILLER_118_592
*908 FILLER_118_604
*909 FILLER_118_616
*910 FILLER_118_628
*911 FILLER_118_634
*912 FILLER_118_637
*913 FILLER_118_643
*914 FILLER_118_645
*915 FILLER_118_65
*916 FILLER_118_675
*917 FILLER_118_687
*918 FILLER_118_699
*919 FILLER_118_701
*920 FILLER_118_713
*921 FILLER_118_725
*922 FILLER_118_737
*923 FILLER_118_745
*924 FILLER_118_749
*925 FILLER_118_755
*926 FILLER_118_757
*927 FILLER_118_765
*928 FILLER_118_77
*929 FILLER_118_790
*930 FILLER_118_802
*931 FILLER_118_810
*932 FILLER_118_813
*933 FILLER_118_825
*934 FILLER_118_83
*935 FILLER_118_837
*936 FILLER_118_849
*937 FILLER_118_85
*938 FILLER_118_861
*939 FILLER_118_867
*940 FILLER_118_869
*941 FILLER_118_881
*942 FILLER_118_893
*943 FILLER_118_905
*944 FILLER_118_917
*945 FILLER_118_923
*946 FILLER_118_925
*947 FILLER_118_937
*948 FILLER_118_949
*949 FILLER_118_961
*950 FILLER_118_97
*951 FILLER_118_973
*952 FILLER_118_979
*953 FILLER_118_981
*954 FILLER_118_993
*955 FILLER_119_1001
*956 FILLER_119_1007
*957 FILLER_119_1009
*958 FILLER_119_1021
*959 FILLER_119_1033
*960 FILLER_119_1045
*961 FILLER_119_105
*962 FILLER_119_1057
*963 FILLER_119_1063
*964 FILLER_119_1065
*965 FILLER_119_1077
*966 FILLER_119_1089
*967 FILLER_119_1101
*968 FILLER_119_111
*969 FILLER_119_1113
*970 FILLER_119_1119
*971 FILLER_119_1121
*972 FILLER_119_113
*973 FILLER_119_1133
*974 FILLER_119_1145
*975 FILLER_119_1157
*976 FILLER_119_1169
*977 FILLER_119_1175
*978 FILLER_119_1177
*979 FILLER_119_1189
*980 FILLER_119_125
*981 FILLER_119_137
*982 FILLER_119_149
*983 FILLER_119_15
*984 FILLER_119_161
*985 FILLER_119_167
*986 FILLER_119_169
*987 FILLER_119_181
*988 FILLER_119_193
*989 FILLER_119_205
*990 FILLER_119_217
*991 FILLER_119_223
*992 FILLER_119_225
*993 FILLER_119_237
*994 FILLER_119_249
*995 FILLER_119_261
*996 FILLER_119_27
*997 FILLER_119_273
*998 FILLER_119_279
*999 FILLER_119_281
*1000 FILLER_119_293
*1001 FILLER_119_3
*1002 FILLER_119_305
*1003 FILLER_119_317
*1004 FILLER_119_329
*1005 FILLER_119_335
*1006 FILLER_119_337
*1007 FILLER_119_349
*1008 FILLER_119_361
*1009 FILLER_119_373
*1010 FILLER_119_385
*1011 FILLER_119_39
*1012 FILLER_119_391
*1013 FILLER_119_393
*1014 FILLER_119_405
*1015 FILLER_119_417
*1016 FILLER_119_429
*1017 FILLER_119_441
*1018 FILLER_119_447
*1019 FILLER_119_449
*1020 FILLER_119_455
*1021 FILLER_119_480
*1022 FILLER_119_503
*1023 FILLER_119_51
*1024 FILLER_119_527
*1025 FILLER_119_55
*1026 FILLER_119_552
*1027 FILLER_119_561
*1028 FILLER_119_569
*1029 FILLER_119_57
*1030 FILLER_119_590
*1031 FILLER_119_613
*1032 FILLER_119_657
*1033 FILLER_119_669
*1034 FILLER_119_673
*1035 FILLER_119_69
*1036 FILLER_119_697
*1037 FILLER_119_721
*1038 FILLER_119_725
*1039 FILLER_119_769
*1040 FILLER_119_781
*1041 FILLER_119_785
*1042 FILLER_119_793
*1043 FILLER_119_81
*1044 FILLER_119_818
*1045 FILLER_119_830
*1046 FILLER_119_838
*1047 FILLER_119_841
*1048 FILLER_119_853
*1049 FILLER_119_865
*1050 FILLER_119_877
*1051 FILLER_119_889
*1052 FILLER_119_895
*1053 FILLER_119_897
*1054 FILLER_119_909
*1055 FILLER_119_921
*1056 FILLER_119_93
*1057 FILLER_119_933
*1058 FILLER_119_945
*1059 FILLER_119_951
*1060 FILLER_119_953
*1061 FILLER_119_965
*1062 FILLER_119_977
*1063 FILLER_119_989
*1064 FILLER_11_1122
*1065 FILLER_11_1134
*1066 FILLER_11_1146
*1067 FILLER_11_1158
*1068 FILLER_11_1170
*1069 FILLER_11_1174
*1070 FILLER_11_1176
*1071 FILLER_11_1188
*1072 FILLER_11_15
*1073 FILLER_11_27
*1074 FILLER_11_3
*1075 FILLER_11_39
*1076 FILLER_11_51
*1077 FILLER_11_55
*1078 FILLER_11_57
*1079 FILLER_11_69
*1080 FILLER_120_1005
*1081 FILLER_120_1017
*1082 FILLER_120_1029
*1083 FILLER_120_1035
*1084 FILLER_120_1037
*1085 FILLER_120_1049
*1086 FILLER_120_1061
*1087 FILLER_120_1073
*1088 FILLER_120_1085
*1089 FILLER_120_109
*1090 FILLER_120_1091
*1091 FILLER_120_1093
*1092 FILLER_120_1105
*1093 FILLER_120_1117
*1094 FILLER_120_1129
*1095 FILLER_120_1141
*1096 FILLER_120_1147
*1097 FILLER_120_1149
*1098 FILLER_120_1161
*1099 FILLER_120_1173
*1100 FILLER_120_1185
*1101 FILLER_120_1189
*1102 FILLER_120_121
*1103 FILLER_120_133
*1104 FILLER_120_139
*1105 FILLER_120_141
*1106 FILLER_120_15
*1107 FILLER_120_153
*1108 FILLER_120_165
*1109 FILLER_120_177
*1110 FILLER_120_189
*1111 FILLER_120_195
*1112 FILLER_120_197
*1113 FILLER_120_209
*1114 FILLER_120_221
*1115 FILLER_120_233
*1116 FILLER_120_245
*1117 FILLER_120_251
*1118 FILLER_120_253
*1119 FILLER_120_265
*1120 FILLER_120_27
*1121 FILLER_120_277
*1122 FILLER_120_289
*1123 FILLER_120_29
*1124 FILLER_120_3
*1125 FILLER_120_301
*1126 FILLER_120_307
*1127 FILLER_120_309
*1128 FILLER_120_321
*1129 FILLER_120_333
*1130 FILLER_120_345
*1131 FILLER_120_357
*1132 FILLER_120_363
*1133 FILLER_120_365
*1134 FILLER_120_377
*1135 FILLER_120_389
*1136 FILLER_120_401
*1137 FILLER_120_41
*1138 FILLER_120_413
*1139 FILLER_120_419
*1140 FILLER_120_421
*1141 FILLER_120_433
*1142 FILLER_120_445
*1143 FILLER_120_457
*1144 FILLER_120_469
*1145 FILLER_120_475
*1146 FILLER_120_477
*1147 FILLER_120_489
*1148 FILLER_120_501
*1149 FILLER_120_513
*1150 FILLER_120_525
*1151 FILLER_120_53
*1152 FILLER_120_531
*1153 FILLER_120_533
*1154 FILLER_120_545
*1155 FILLER_120_557
*1156 FILLER_120_569
*1157 FILLER_120_581
*1158 FILLER_120_587
*1159 FILLER_120_589
*1160 FILLER_120_601
*1161 FILLER_120_613
*1162 FILLER_120_625
*1163 FILLER_120_637
*1164 FILLER_120_643
*1165 FILLER_120_645
*1166 FILLER_120_65
*1167 FILLER_120_657
*1168 FILLER_120_669
*1169 FILLER_120_681
*1170 FILLER_120_693
*1171 FILLER_120_699
*1172 FILLER_120_701
*1173 FILLER_120_713
*1174 FILLER_120_725
*1175 FILLER_120_737
*1176 FILLER_120_749
*1177 FILLER_120_755
*1178 FILLER_120_757
*1179 FILLER_120_769
*1180 FILLER_120_77
*1181 FILLER_120_781
*1182 FILLER_120_793
*1183 FILLER_120_805
*1184 FILLER_120_811
*1185 FILLER_120_813
*1186 FILLER_120_825
*1187 FILLER_120_83
*1188 FILLER_120_837
*1189 FILLER_120_849
*1190 FILLER_120_85
*1191 FILLER_120_861
*1192 FILLER_120_867
*1193 FILLER_120_869
*1194 FILLER_120_881
*1195 FILLER_120_893
*1196 FILLER_120_905
*1197 FILLER_120_917
*1198 FILLER_120_923
*1199 FILLER_120_925
*1200 FILLER_120_937
*1201 FILLER_120_949
*1202 FILLER_120_961
*1203 FILLER_120_97
*1204 FILLER_120_973
*1205 FILLER_120_979
*1206 FILLER_120_981
*1207 FILLER_120_993
*1208 FILLER_121_1001
*1209 FILLER_121_1007
*1210 FILLER_121_1009
*1211 FILLER_121_1021
*1212 FILLER_121_1033
*1213 FILLER_121_1045
*1214 FILLER_121_105
*1215 FILLER_121_1057
*1216 FILLER_121_1063
*1217 FILLER_121_1065
*1218 FILLER_121_1077
*1219 FILLER_121_1089
*1220 FILLER_121_1101
*1221 FILLER_121_111
*1222 FILLER_121_1113
*1223 FILLER_121_1119
*1224 FILLER_121_1121
*1225 FILLER_121_113
*1226 FILLER_121_1133
*1227 FILLER_121_1145
*1228 FILLER_121_1157
*1229 FILLER_121_1169
*1230 FILLER_121_1175
*1231 FILLER_121_1177
*1232 FILLER_121_1189
*1233 FILLER_121_125
*1234 FILLER_121_137
*1235 FILLER_121_149
*1236 FILLER_121_15
*1237 FILLER_121_161
*1238 FILLER_121_167
*1239 FILLER_121_169
*1240 FILLER_121_181
*1241 FILLER_121_193
*1242 FILLER_121_205
*1243 FILLER_121_217
*1244 FILLER_121_223
*1245 FILLER_121_225
*1246 FILLER_121_237
*1247 FILLER_121_249
*1248 FILLER_121_261
*1249 FILLER_121_27
*1250 FILLER_121_273
*1251 FILLER_121_279
*1252 FILLER_121_281
*1253 FILLER_121_293
*1254 FILLER_121_3
*1255 FILLER_121_305
*1256 FILLER_121_317
*1257 FILLER_121_329
*1258 FILLER_121_335
*1259 FILLER_121_337
*1260 FILLER_121_349
*1261 FILLER_121_361
*1262 FILLER_121_373
*1263 FILLER_121_385
*1264 FILLER_121_39
*1265 FILLER_121_391
*1266 FILLER_121_393
*1267 FILLER_121_405
*1268 FILLER_121_417
*1269 FILLER_121_429
*1270 FILLER_121_441
*1271 FILLER_121_447
*1272 FILLER_121_449
*1273 FILLER_121_461
*1274 FILLER_121_473
*1275 FILLER_121_485
*1276 FILLER_121_497
*1277 FILLER_121_503
*1278 FILLER_121_505
*1279 FILLER_121_51
*1280 FILLER_121_517
*1281 FILLER_121_529
*1282 FILLER_121_541
*1283 FILLER_121_55
*1284 FILLER_121_553
*1285 FILLER_121_559
*1286 FILLER_121_561
*1287 FILLER_121_57
*1288 FILLER_121_573
*1289 FILLER_121_585
*1290 FILLER_121_597
*1291 FILLER_121_609
*1292 FILLER_121_615
*1293 FILLER_121_617
*1294 FILLER_121_629
*1295 FILLER_121_641
*1296 FILLER_121_653
*1297 FILLER_121_665
*1298 FILLER_121_671
*1299 FILLER_121_673
*1300 FILLER_121_685
*1301 FILLER_121_69
*1302 FILLER_121_697
*1303 FILLER_121_709
*1304 FILLER_121_721
*1305 FILLER_121_727
*1306 FILLER_121_729
*1307 FILLER_121_741
*1308 FILLER_121_753
*1309 FILLER_121_765
*1310 FILLER_121_777
*1311 FILLER_121_783
*1312 FILLER_121_785
*1313 FILLER_121_797
*1314 FILLER_121_809
*1315 FILLER_121_81
*1316 FILLER_121_821
*1317 FILLER_121_833
*1318 FILLER_121_839
*1319 FILLER_121_841
*1320 FILLER_121_853
*1321 FILLER_121_865
*1322 FILLER_121_877
*1323 FILLER_121_889
*1324 FILLER_121_895
*1325 FILLER_121_897
*1326 FILLER_121_909
*1327 FILLER_121_921
*1328 FILLER_121_93
*1329 FILLER_121_933
*1330 FILLER_121_945
*1331 FILLER_121_951
*1332 FILLER_121_953
*1333 FILLER_121_965
*1334 FILLER_121_977
*1335 FILLER_121_989
*1336 FILLER_122_1005
*1337 FILLER_122_1017
*1338 FILLER_122_1029
*1339 FILLER_122_1035
*1340 FILLER_122_1037
*1341 FILLER_122_1049
*1342 FILLER_122_1061
*1343 FILLER_122_1073
*1344 FILLER_122_1085
*1345 FILLER_122_109
*1346 FILLER_122_1091
*1347 FILLER_122_1093
*1348 FILLER_122_1105
*1349 FILLER_122_1117
*1350 FILLER_122_1129
*1351 FILLER_122_1141
*1352 FILLER_122_1147
*1353 FILLER_122_1149
*1354 FILLER_122_1161
*1355 FILLER_122_1173
*1356 FILLER_122_1185
*1357 FILLER_122_1189
*1358 FILLER_122_121
*1359 FILLER_122_133
*1360 FILLER_122_139
*1361 FILLER_122_141
*1362 FILLER_122_15
*1363 FILLER_122_153
*1364 FILLER_122_165
*1365 FILLER_122_177
*1366 FILLER_122_189
*1367 FILLER_122_195
*1368 FILLER_122_197
*1369 FILLER_122_209
*1370 FILLER_122_221
*1371 FILLER_122_233
*1372 FILLER_122_245
*1373 FILLER_122_251
*1374 FILLER_122_253
*1375 FILLER_122_265
*1376 FILLER_122_27
*1377 FILLER_122_277
*1378 FILLER_122_289
*1379 FILLER_122_29
*1380 FILLER_122_3
*1381 FILLER_122_301
*1382 FILLER_122_307
*1383 FILLER_122_309
*1384 FILLER_122_321
*1385 FILLER_122_333
*1386 FILLER_122_345
*1387 FILLER_122_357
*1388 FILLER_122_363
*1389 FILLER_122_365
*1390 FILLER_122_377
*1391 FILLER_122_389
*1392 FILLER_122_401
*1393 FILLER_122_41
*1394 FILLER_122_413
*1395 FILLER_122_419
*1396 FILLER_122_421
*1397 FILLER_122_433
*1398 FILLER_122_445
*1399 FILLER_122_457
*1400 FILLER_122_469
*1401 FILLER_122_475
*1402 FILLER_122_477
*1403 FILLER_122_489
*1404 FILLER_122_501
*1405 FILLER_122_513
*1406 FILLER_122_525
*1407 FILLER_122_53
*1408 FILLER_122_531
*1409 FILLER_122_533
*1410 FILLER_122_545
*1411 FILLER_122_557
*1412 FILLER_122_569
*1413 FILLER_122_581
*1414 FILLER_122_587
*1415 FILLER_122_589
*1416 FILLER_122_601
*1417 FILLER_122_613
*1418 FILLER_122_625
*1419 FILLER_122_637
*1420 FILLER_122_643
*1421 FILLER_122_645
*1422 FILLER_122_65
*1423 FILLER_122_657
*1424 FILLER_122_669
*1425 FILLER_122_681
*1426 FILLER_122_693
*1427 FILLER_122_699
*1428 FILLER_122_701
*1429 FILLER_122_713
*1430 FILLER_122_725
*1431 FILLER_122_737
*1432 FILLER_122_749
*1433 FILLER_122_755
*1434 FILLER_122_757
*1435 FILLER_122_769
*1436 FILLER_122_77
*1437 FILLER_122_781
*1438 FILLER_122_793
*1439 FILLER_122_805
*1440 FILLER_122_811
*1441 FILLER_122_813
*1442 FILLER_122_825
*1443 FILLER_122_83
*1444 FILLER_122_837
*1445 FILLER_122_849
*1446 FILLER_122_85
*1447 FILLER_122_861
*1448 FILLER_122_867
*1449 FILLER_122_869
*1450 FILLER_122_881
*1451 FILLER_122_893
*1452 FILLER_122_905
*1453 FILLER_122_917
*1454 FILLER_122_923
*1455 FILLER_122_925
*1456 FILLER_122_937
*1457 FILLER_122_949
*1458 FILLER_122_961
*1459 FILLER_122_97
*1460 FILLER_122_973
*1461 FILLER_122_979
*1462 FILLER_122_981
*1463 FILLER_122_993
*1464 FILLER_123_1001
*1465 FILLER_123_1007
*1466 FILLER_123_1009
*1467 FILLER_123_1021
*1468 FILLER_123_1033
*1469 FILLER_123_1045
*1470 FILLER_123_105
*1471 FILLER_123_1057
*1472 FILLER_123_1063
*1473 FILLER_123_1065
*1474 FILLER_123_1077
*1475 FILLER_123_1089
*1476 FILLER_123_1101
*1477 FILLER_123_111
*1478 FILLER_123_1113
*1479 FILLER_123_1119
*1480 FILLER_123_1121
*1481 FILLER_123_113
*1482 FILLER_123_1133
*1483 FILLER_123_1145
*1484 FILLER_123_1157
*1485 FILLER_123_1169
*1486 FILLER_123_1175
*1487 FILLER_123_1177
*1488 FILLER_123_1189
*1489 FILLER_123_125
*1490 FILLER_123_137
*1491 FILLER_123_149
*1492 FILLER_123_15
*1493 FILLER_123_161
*1494 FILLER_123_167
*1495 FILLER_123_169
*1496 FILLER_123_181
*1497 FILLER_123_193
*1498 FILLER_123_205
*1499 FILLER_123_217
*1500 FILLER_123_223
*1501 FILLER_123_225
*1502 FILLER_123_237
*1503 FILLER_123_249
*1504 FILLER_123_261
*1505 FILLER_123_27
*1506 FILLER_123_273
*1507 FILLER_123_279
*1508 FILLER_123_281
*1509 FILLER_123_293
*1510 FILLER_123_3
*1511 FILLER_123_305
*1512 FILLER_123_317
*1513 FILLER_123_329
*1514 FILLER_123_335
*1515 FILLER_123_337
*1516 FILLER_123_349
*1517 FILLER_123_361
*1518 FILLER_123_373
*1519 FILLER_123_385
*1520 FILLER_123_39
*1521 FILLER_123_391
*1522 FILLER_123_393
*1523 FILLER_123_405
*1524 FILLER_123_417
*1525 FILLER_123_429
*1526 FILLER_123_441
*1527 FILLER_123_447
*1528 FILLER_123_449
*1529 FILLER_123_461