*SPEF "ieee 1481-1999"
*DESIGN "counter"
*DATE "07:29:00 Wednesday March 05, 2025"
*VENDOR "The OpenROAD Project"
*PROGRAM "OpenROAD"
*VERSION "edf00dff99f6c40d67a30c0e22a8191c5d2ed9d6"
*DESIGN_FLOW "NAME_SCOPE LOCAL" "PIN_CAP NONE"
*DIVIDER /
*DELIMITER :
*BUS_DELIMITER []
*T_UNIT 1 NS
*C_UNIT 1 PF
*R_UNIT 1 OHM
*L_UNIT 1 HENRY

*NAME_MAP
*1 addr00[0]
*2 addr00[1]
*3 addr00[2]
*4 addr00[3]
*5 addr00[4]
*6 addr00[5]
*7 addr00[6]
*8 addr00[7]
*9 addr01[0]
*10 addr01[1]
*11 addr01[2]
*12 addr01[3]
*13 addr01[4]
*14 addr01[5]
*15 addr01[6]
*16 addr01[7]
*17 clk
*18 csb00
*19 csb01
*20 din00[0]
*21 din00[10]
*22 din00[11]
*23 din00[12]
*24 din00[13]
*25 din00[14]
*26 din00[15]
*27 din00[1]
*28 din00[2]
*29 din00[3]
*30 din00[4]
*31 din00[5]
*32 din00[6]
*33 din00[7]
*34 din00[8]
*35 din00[9]
*36 din01[0]
*37 din01[10]
*38 din01[11]
*39 din01[12]
*40 din01[13]
*41 din01[14]
*42 din01[15]
*43 din01[1]
*44 din01[2]
*45 din01[3]
*46 din01[4]
*47 din01[5]
*48 din01[6]
*49 din01[7]
*50 din01[8]
*51 din01[9]
*52 rst
*53 sine_out[0]
*54 sine_out[10]
*55 sine_out[11]
*56 sine_out[12]
*57 sine_out[13]
*58 sine_out[14]
*59 sine_out[15]
*60 sine_out[1]
*61 sine_out[2]
*62 sine_out[3]
*63 sine_out[4]
*64 sine_out[5]
*65 sine_out[6]
*66 sine_out[7]
*67 sine_out[8]
*68 sine_out[9]
*71 _000_
*72 _001_
*73 _002_
*74 _003_
*75 _004_
*76 _005_
*77 _006_
*78 _007_
*79 _008_
*80 _009_
*81 _010_
*82 _011_
*83 _012_
*84 _013_
*85 _014_
*86 _015_
*87 _016_
*88 _017_
*89 _018_
*90 _019_
*91 _020_
*92 _021_
*93 _022_
*94 _023_
*95 _024_
*96 _025_
*97 _026_
*98 _027_
*99 _028_
*100 _029_
*101 _030_
*102 _031_
*103 _032_
*104 _033_
*105 _034_
*106 _035_
*107 _036_
*108 _037_
*109 _038_
*110 _039_
*111 _040_
*112 _041_
*113 _042_
*114 _043_
*115 _044_
*116 _045_
*117 _046_
*118 _047_
*119 _048_
*120 _049_
*121 _050_
*122 _051_
*123 _052_
*124 _053_
*125 _054_
*126 _055_
*127 _056_
*128 _057_
*129 _058_
*130 clknet_0_clk
*131 clknet_2_0__leaf_clk
*132 clknet_2_1__leaf_clk
*133 clknet_2_2__leaf_clk
*134 clknet_2_3__leaf_clk
*135 net1
*136 net10
*137 net11
*138 net12
*139 net13
*140 net14
*141 net15
*142 net16
*143 net17
*144 net18
*145 net19
*146 net2
*147 net20
*148 net21
*149 net22
*150 net23
*151 net24
*152 net25
*153 net26
*154 net27
*155 net28
*156 net29
*157 net3
*158 net30
*159 net31
*160 net32
*161 net33
*162 net34
*163 net35
*164 net36
*165 net37
*166 net38
*167 net39
*168 net4
*169 net40
*170 net41
*171 net42
*172 net43
*173 net44
*174 net45
*175 net46
*176 net47
*177 net48
*178 net49
*179 net5
*180 net50
*181 net51
*182 net52
*183 net53
*184 net54
*185 net55
*186 net56
*187 net57
*188 net58
*189 net59
*190 net6
*191 net60
*192 net61
*193 net62
*194 net63
*195 net64
*196 net65
*197 net66
*198 net67
*199 net68
*200 net69
*201 net7
*202 net70
*203 net71
*204 net72
*205 net73
*206 net74
*207 net75
*208 net76
*209 net77
*210 net78
*211 net79
*212 net8
*213 net80
*214 net81
*215 net82
*216 net83
*217 net84
*218 net85
*219 net86
*220 net87
*221 net88
*222 net89
*223 net9
*224 net90
*225 net91
*226 net92
*227 net93
*228 net94
*229 sine_out_temp0\[0\]
*230 sine_out_temp0\[10\]
*231 sine_out_temp0\[11\]
*232 sine_out_temp0\[12\]
*233 sine_out_temp0\[13\]
*234 sine_out_temp0\[14\]
*235 sine_out_temp0\[15\]
*236 sine_out_temp0\[1\]
*237 sine_out_temp0\[2\]
*238 sine_out_temp0\[3\]
*239 sine_out_temp0\[4\]
*240 sine_out_temp0\[5\]
*241 sine_out_temp0\[6\]
*242 sine_out_temp0\[7\]
*243 sine_out_temp0\[8\]
*244 sine_out_temp0\[9\]
*245 sine_out_temp1\[0\]
*246 sine_out_temp1\[10\]
*247 sine_out_temp1\[11\]
*248 sine_out_temp1\[12\]
*249 sine_out_temp1\[13\]
*250 sine_out_temp1\[14\]
*251 sine_out_temp1\[15\]
*252 sine_out_temp1\[1\]
*253 sine_out_temp1\[2\]
*254 sine_out_temp1\[3\]
*255 sine_out_temp1\[4\]
*256 sine_out_temp1\[5\]
*257 sine_out_temp1\[6\]
*258 sine_out_temp1\[7\]
*259 sine_out_temp1\[8\]
*260 sine_out_temp1\[9\]
*261 tcout\[0\]
*262 tcout\[1\]
*263 tcout\[2\]
*264 tcout\[3\]
*265 tcout\[4\]
*266 tcout\[5\]
*267 tcout\[6\]
*268 tcout\[7\]
*269 tcout\[8\]
*270 ANTENNA_1
*271 ANTENNA_2
*272 ANTENNA__061__A
*273 ANTENNA__063__A0
*274 ANTENNA__063__A1
*275 ANTENNA__064__A0
*276 ANTENNA__064__A1
*277 ANTENNA__065__A0
*278 ANTENNA__065__A1
*279 ANTENNA__066__A0
*280 ANTENNA__066__A1
*281 ANTENNA__067__A0
*282 ANTENNA__067__A1
*283 ANTENNA__068__A0
*284 ANTENNA__068__A1
*285 ANTENNA__069__A0
*286 ANTENNA__069__A1
*287 ANTENNA__069__S
*288 ANTENNA__069__X
*289 ANTENNA__070__A0
*290 ANTENNA__070__A1
*291 ANTENNA__070__S
*292 ANTENNA__070__X
*293 ANTENNA__071__A0
*294 ANTENNA__071__A1
*295 ANTENNA__071__S
*296 ANTENNA__071__X
*297 ANTENNA__072__A0
*298 ANTENNA__072__A1
*299 ANTENNA__072__S
*300 ANTENNA__072__X
*301 ANTENNA__073__A0
*302 ANTENNA__073__A1
*303 ANTENNA__073__X
*304 ANTENNA__074__A0
*305 ANTENNA__074__A1
*306 ANTENNA__075__A0
*307 ANTENNA__075__A1
*308 ANTENNA__076__A0
*309 ANTENNA__076__A1
*310 ANTENNA__077__A0
*311 ANTENNA__077__A1
*312 ANTENNA__078__A0
*313 ANTENNA__078__A1
*314 ANTENNA__078__S
*315 ANTENNA__079__A
*316 ANTENNA__079__B
*317 ANTENNA__080__A
*318 ANTENNA__080__B
*319 ANTENNA__080__C
*320 ANTENNA__081__A1
*321 ANTENNA__081__A2
*322 ANTENNA__081__B1
*323 ANTENNA__083__A
*324 ANTENNA__083__B
*325 ANTENNA__083__C
*326 ANTENNA__083__D
*327 ANTENNA__084__A
*328 ANTENNA__086__A
*329 ANTENNA__087__A
*330 ANTENNA__087__B
*331 ANTENNA__088__A1
*332 ANTENNA__088__B1
*333 ANTENNA__090__A
*334 ANTENNA__091__A
*335 ANTENNA__091__B
*336 ANTENNA__092__A
*337 ANTENNA__092__B
*338 ANTENNA__093__A1
*339 ANTENNA__093__A2
*340 ANTENNA__093__A3
*341 ANTENNA__093__B1
*342 ANTENNA__102__A
*343 ANTENNA__111__A
*344 ANTENNA__120__CLK
*345 ANTENNA__120__D
*346 ANTENNA__120__Q
*347 ANTENNA__121__CLK
*348 ANTENNA__121__D
*349 ANTENNA__121__Q
*350 ANTENNA__122__CLK
*351 ANTENNA__122__D
*352 ANTENNA__122__Q
*353 ANTENNA__123__CLK
*354 ANTENNA__123__Q
*355 ANTENNA__124__CLK
*356 ANTENNA__124__Q
*357 ANTENNA__125__CLK
*358 ANTENNA__125__Q
*359 ANTENNA__126__CLK
*360 ANTENNA__127__CLK
*361 ANTENNA__128__CLK
*362 ANTENNA__128__Q
*363 ANTENNA__129__CLK
*364 ANTENNA__129__Q
*365 ANTENNA__130__CLK
*366 ANTENNA__130__Q
*367 ANTENNA__131__CLK
*368 ANTENNA__131__Q
*369 ANTENNA__132__CLK
*370 ANTENNA__132__Q
*371 ANTENNA__133__CLK
*372 ANTENNA__133__Q
*373 ANTENNA__134__CLK
*374 ANTENNA__134__Q
*375 ANTENNA__135__CLK
*376 ANTENNA__135__Q
*377 ANTENNA__136__CLK
*378 ANTENNA__136__Q
*379 ANTENNA__137__CLK
*380 ANTENNA__137__Q
*381 ANTENNA__138__CLK
*382 ANTENNA__138__Q
*383 ANTENNA__139__CLK
*384 ANTENNA__139__Q
*385 ANTENNA__140__CLK
*386 ANTENNA__140__Q
*387 ANTENNA__141__CLK
*388 ANTENNA__141__Q
*389 ANTENNA__142__CLK
*390 ANTENNA__142__Q
*391 ANTENNA__143__CLK
*392 ANTENNA__143__D
*393 ANTENNA__143__Q
*394 ANTENNA__144__CLK
*395 ANTENNA__144__D
*396 ANTENNA__144__Q
*397 ANTENNA_clkbuf_0_clk_A
*398 ANTENNA_clkbuf_0_clk_X
*399 ANTENNA_clkbuf_2_0__f_clk_A
*400 ANTENNA_clkbuf_2_0__f_clk_X
*401 ANTENNA_clkbuf_2_1__f_clk_A
*402 ANTENNA_clkbuf_2_1__f_clk_X
*403 ANTENNA_clkbuf_2_2__f_clk_A
*404 ANTENNA_clkbuf_2_2__f_clk_X
*405 ANTENNA_clkbuf_2_3__f_clk_A
*406 ANTENNA_clkbuf_2_3__f_clk_X
*407 ANTENNA_clkload0_A
*408 ANTENNA_clkload1_A
*409 ANTENNA_clkload2_A
*410 ANTENNA_fanout83_A
*411 ANTENNA_fanout84_A
*412 ANTENNA_fanout84_X
*413 ANTENNA_fanout85_A
*414 ANTENNA_fanout86_A
*415 ANTENNA_fanout86_X
*416 ANTENNA_fanout87_A
*417 ANTENNA_fanout87_X
*418 ANTENNA_fanout88_A
*419 ANTENNA_fanout90_A
*420 ANTENNA_fanout91_A
*421 ANTENNA_fanout91_X
*422 ANTENNA_fanout92_A
*423 ANTENNA_input10_A
*424 ANTENNA_input10_X
*425 ANTENNA_input11_A
*426 ANTENNA_input12_A
*427 ANTENNA_input13_A
*428 ANTENNA_input14_A
*429 ANTENNA_input15_A
*430 ANTENNA_input16_A
*431 ANTENNA_input17_A
*432 ANTENNA_input17_X
*433 ANTENNA_input18_A
*434 ANTENNA_input19_A
*435 ANTENNA_input19_X
*436 ANTENNA_input1_A
*437 ANTENNA_input1_X
*438 ANTENNA_input20_A
*439 ANTENNA_input21_A
*440 ANTENNA_input22_A
*441 ANTENNA_input23_A
*442 ANTENNA_input24_A
*443 ANTENNA_input25_A
*444 ANTENNA_input26_A
*445 ANTENNA_input26_X
*446 ANTENNA_input27_A
*447 ANTENNA_input27_X
*448 ANTENNA_input28_A
*449 ANTENNA_input28_X
*450 ANTENNA_input29_A
*451 ANTENNA_input29_X
*452 ANTENNA_input2_A
*453 ANTENNA_input2_X
*454 ANTENNA_input30_A
*455 ANTENNA_input31_A
*456 ANTENNA_input32_A
*457 ANTENNA_input33_A
*458 ANTENNA_input34_A
*459 ANTENNA_input35_A
*460 ANTENNA_input35_X
*461 ANTENNA_input36_A
*462 ANTENNA_input36_X
*463 ANTENNA_input37_A
*464 ANTENNA_input37_X
*465 ANTENNA_input38_A
*466 ANTENNA_input38_X
*467 ANTENNA_input39_A
*468 ANTENNA_input39_X
*469 ANTENNA_input3_A
*470 ANTENNA_input3_X
*471 ANTENNA_input40_A
*472 ANTENNA_input40_X
*473 ANTENNA_input41_A
*474 ANTENNA_input41_X
*475 ANTENNA_input42_A
*476 ANTENNA_input42_X
*477 ANTENNA_input43_A
*478 ANTENNA_input43_X
*479 ANTENNA_input44_A
*480 ANTENNA_input44_X
*481 ANTENNA_input45_A
*482 ANTENNA_input45_X
*483 ANTENNA_input46_A
*484 ANTENNA_input46_X
*485 ANTENNA_input47_A
*486 ANTENNA_input47_X
*487 ANTENNA_input48_A
*488 ANTENNA_input48_X
*489 ANTENNA_input49_A
*490 ANTENNA_input49_X
*491 ANTENNA_input4_A
*492 ANTENNA_input4_X
*493 ANTENNA_input50_A
*494 ANTENNA_input50_X
*495 ANTENNA_input51_A
*496 ANTENNA_input51_X
*497 ANTENNA_input5_A
*498 ANTENNA_input5_X
*499 ANTENNA_input6_A
*500 ANTENNA_input6_X
*501 ANTENNA_input7_A
*502 ANTENNA_input7_X
*503 ANTENNA_input8_A
*504 ANTENNA_input8_X
*505 ANTENNA_input9_A
*506 ANTENNA_input9_X
*507 ANTENNA_mem_i0_addr0\[0\]
*508 ANTENNA_mem_i0_addr0\[1\]
*509 ANTENNA_mem_i0_addr0\[2\]
*510 ANTENNA_mem_i0_addr0\[3\]
*511 ANTENNA_mem_i0_addr0\[4\]
*512 ANTENNA_mem_i0_addr0\[5\]
*513 ANTENNA_mem_i0_addr0\[6\]
*514 ANTENNA_mem_i0_addr0\[7\]
*515 ANTENNA_mem_i0_addr1\[0\]
*516 ANTENNA_mem_i0_addr1\[1\]
*517 ANTENNA_mem_i0_addr1\[2\]
*518 ANTENNA_mem_i0_addr1\[3\]
*519 ANTENNA_mem_i0_addr1\[4\]
*520 ANTENNA_mem_i0_addr1\[5\]
*521 ANTENNA_mem_i0_addr1\[6\]
*522 ANTENNA_mem_i0_addr1\[7\]
*523 ANTENNA_mem_i0_clk0
*524 ANTENNA_mem_i0_clk1
*525 ANTENNA_mem_i0_csb0
*526 ANTENNA_mem_i0_din0\[0\]
*527 ANTENNA_mem_i0_din0\[1\]
*528 ANTENNA_mem_i0_din0\[2\]
*529 ANTENNA_mem_i0_din0\[3\]
*530 ANTENNA_mem_i0_din0\[4\]
*531 ANTENNA_mem_i0_dout1\[0\]
*532 ANTENNA_mem_i0_dout1\[10\]
*533 ANTENNA_mem_i0_dout1\[11\]
*534 ANTENNA_mem_i0_dout1\[12\]
*535 ANTENNA_mem_i0_dout1\[13\]
*536 ANTENNA_mem_i0_dout1\[14\]
*537 ANTENNA_mem_i0_dout1\[15\]
*538 ANTENNA_mem_i0_dout1\[1\]
*539 ANTENNA_mem_i0_dout1\[2\]
*540 ANTENNA_mem_i0_dout1\[3\]
*541 ANTENNA_mem_i0_dout1\[4\]
*542 ANTENNA_mem_i0_dout1\[5\]
*543 ANTENNA_mem_i0_dout1\[6\]
*544 ANTENNA_mem_i0_dout1\[7\]
*545 ANTENNA_mem_i0_dout1\[8\]
*546 ANTENNA_mem_i0_dout1\[9\]
*547 ANTENNA_mem_i1_addr0\[0\]
*548 ANTENNA_mem_i1_addr0\[1\]
*549 ANTENNA_mem_i1_addr1\[0\]
*550 ANTENNA_mem_i1_addr1\[1\]
*551 ANTENNA_mem_i1_addr1\[2\]
*552 ANTENNA_mem_i1_addr1\[3\]
*553 ANTENNA_mem_i1_addr1\[4\]
*554 ANTENNA_mem_i1_addr1\[5\]
*555 ANTENNA_mem_i1_addr1\[6\]
*556 ANTENNA_mem_i1_addr1\[7\]
*557 ANTENNA_mem_i1_clk0
*558 ANTENNA_mem_i1_clk1
*559 ANTENNA_mem_i1_din0\[0\]
*560 ANTENNA_mem_i1_din0\[10\]
*561 ANTENNA_mem_i1_din0\[11\]
*562 ANTENNA_mem_i1_din0\[12\]
*563 ANTENNA_mem_i1_din0\[13\]
*564 ANTENNA_mem_i1_din0\[14\]
*565 ANTENNA_mem_i1_din0\[15\]
*566 ANTENNA_mem_i1_din0\[1\]
*567 ANTENNA_mem_i1_din0\[2\]
*568 ANTENNA_mem_i1_din0\[3\]
*569 ANTENNA_mem_i1_din0\[4\]
*570 ANTENNA_mem_i1_din0\[5\]
*571 ANTENNA_mem_i1_din0\[6\]
*572 ANTENNA_mem_i1_din0\[7\]
*573 ANTENNA_mem_i1_din0\[8\]
*574 ANTENNA_mem_i1_din0\[9\]
*575 ANTENNA_mem_i1_dout1\[0\]
*576 ANTENNA_output52_A
*577 ANTENNA_output53_A
*578 ANTENNA_output54_A
*579 ANTENNA_output55_A
*580 ANTENNA_output56_A
*581 ANTENNA_output59_A
*582 ANTENNA_output60_A
*583 ANTENNA_output61_A
*584 ANTENNA_output62_A
*585 ANTENNA_output63_A
*586 ANTENNA_output64_A
*587 ANTENNA_output65_A
*588 ANTENNA_output66_A
*589 ANTENNA_output67_A
*590 ANTENNA_wire68_X
*591 ANTENNA_wire69_X
*592 ANTENNA_wire70_X
*593 ANTENNA_wire71_X
*594 ANTENNA_wire72_X
*595 ANTENNA_wire73_X
*596 ANTENNA_wire74_X
*597 ANTENNA_wire75_X
*598 ANTENNA_wire76_X
*599 ANTENNA_wire77_X
*600 ANTENNA_wire78_X
*601 ANTENNA_wire79_X
*602 ANTENNA_wire80_X
*603 ANTENNA_wire81_X
*604 ANTENNA_wire82_X
*605 FILLER_0_1005
*606 FILLER_0_1009
*607 FILLER_0_1021
*608 FILLER_0_1033
*609 FILLER_0_1037
*610 FILLER_0_1049
*611 FILLER_0_1061
*612 FILLER_0_1065
*613 FILLER_0_1077
*614 FILLER_0_1089
*615 FILLER_0_109
*616 FILLER_0_1093
*617 FILLER_0_1105
*618 FILLER_0_1117
*619 FILLER_0_1121
*620 FILLER_0_113
*621 FILLER_0_1133
*622 FILLER_0_1145
*623 FILLER_0_1149
*624 FILLER_0_1161
*625 FILLER_0_1167
*626 FILLER_0_125
*627 FILLER_0_137
*628 FILLER_0_141
*629 FILLER_0_15
*630 FILLER_0_153
*631 FILLER_0_165
*632 FILLER_0_169
*633 FILLER_0_181
*634 FILLER_0_193
*635 FILLER_0_197
*636 FILLER_0_209
*637 FILLER_0_221
*638 FILLER_0_225
*639 FILLER_0_237
*640 FILLER_0_249
*641 FILLER_0_253
*642 FILLER_0_265
*643 FILLER_0_27
*644 FILLER_0_277
*645 FILLER_0_281
*646 FILLER_0_29
*647 FILLER_0_293
*648 FILLER_0_3
*649 FILLER_0_305
*650 FILLER_0_309
*651 FILLER_0_321
*652 FILLER_0_329
*653 FILLER_0_335
*654 FILLER_0_337
*655 FILLER_0_343
*656 FILLER_0_349
*657 FILLER_0_357
*658 FILLER_0_363
*659 FILLER_0_365
*660 FILLER_0_371
*661 FILLER_0_377
*662 FILLER_0_384
*663 FILLER_0_398
*664 FILLER_0_406
*665 FILLER_0_41
*666 FILLER_0_412
*667 FILLER_0_426
*668 FILLER_0_434
*669 FILLER_0_440
*670 FILLER_0_447
*671 FILLER_0_449
*672 FILLER_0_455
*673 FILLER_0_461
*674 FILLER_0_473
*675 FILLER_0_477
*676 FILLER_0_489
*677 FILLER_0_501
*678 FILLER_0_505
*679 FILLER_0_517
*680 FILLER_0_529
*681 FILLER_0_53
*682 FILLER_0_533
*683 FILLER_0_545
*684 FILLER_0_557
*685 FILLER_0_561
*686 FILLER_0_57
*687 FILLER_0_573
*688 FILLER_0_585
*689 FILLER_0_589
*690 FILLER_0_601
*691 FILLER_0_613
*692 FILLER_0_617
*693 FILLER_0_629
*694 FILLER_0_641
*695 FILLER_0_645
*696 FILLER_0_657
*697 FILLER_0_669
*698 FILLER_0_673
*699 FILLER_0_685
*700 FILLER_0_69
*701 FILLER_0_697
*702 FILLER_0_701
*703 FILLER_0_713
*704 FILLER_0_725
*705 FILLER_0_729
*706 FILLER_0_741
*707 FILLER_0_753
*708 FILLER_0_757
*709 FILLER_0_769
*710 FILLER_0_781
*711 FILLER_0_785
*712 FILLER_0_797
*713 FILLER_0_809
*714 FILLER_0_81
*715 FILLER_0_813
*716 FILLER_0_825
*717 FILLER_0_837
*718 FILLER_0_841
*719 FILLER_0_85
*720 FILLER_0_853
*721 FILLER_0_865
*722 FILLER_0_869
*723 FILLER_0_881
*724 FILLER_0_893
*725 FILLER_0_897
*726 FILLER_0_909
*727 FILLER_0_921
*728 FILLER_0_925
*729 FILLER_0_937
*730 FILLER_0_949
*731 FILLER_0_953
*732 FILLER_0_965
*733 FILLER_0_97
*734 FILLER_0_977
*735 FILLER_0_981
*736 FILLER_0_993
*737 FILLER_100_1122
*738 FILLER_100_1134
*739 FILLER_100_1146
*740 FILLER_100_1148
*741 FILLER_100_1160
*742 FILLER_100_15
*743 FILLER_100_27
*744 FILLER_100_29
*745 FILLER_100_3
*746 FILLER_100_41
*747 FILLER_100_53
*748 FILLER_100_65
*749 FILLER_101_1122
*750 FILLER_101_1134
*751 FILLER_101_1146
*752 FILLER_101_1158
*753 FILLER_101_1166
*754 FILLER_101_15
*755 FILLER_101_27
*756 FILLER_101_3
*757 FILLER_101_39
*758 FILLER_101_51
*759 FILLER_101_55
*760 FILLER_101_57
*761 FILLER_101_69
*762 FILLER_102_1122
*763 FILLER_102_1134
*764 FILLER_102_1146
*765 FILLER_102_1148
*766 FILLER_102_1160
*767 FILLER_102_15
*768 FILLER_102_27
*769 FILLER_102_29
*770 FILLER_102_3
*771 FILLER_102_41
*772 FILLER_102_53
*773 FILLER_102_65
*774 FILLER_103_1122
*775 FILLER_103_1134
*776 FILLER_103_1146
*777 FILLER_103_1158
*778 FILLER_103_1166
*779 FILLER_103_15
*780 FILLER_103_27
*781 FILLER_103_3
*782 FILLER_103_39
*783 FILLER_103_51
*784 FILLER_103_55
*785 FILLER_103_57
*786 FILLER_103_69
*787 FILLER_104_1122
*788 FILLER_104_1134
*789 FILLER_104_1146
*790 FILLER_104_1148
*791 FILLER_104_1160
*792 FILLER_104_15
*793 FILLER_104_27
*794 FILLER_104_29
*795 FILLER_104_3
*796 FILLER_104_41
*797 FILLER_104_53
*798 FILLER_104_65
*799 FILLER_105_1122
*800 FILLER_105_1134
*801 FILLER_105_1146
*802 FILLER_105_1158
*803 FILLER_105_1166
*804 FILLER_105_15
*805 FILLER_105_27
*806 FILLER_105_3
*807 FILLER_105_39
*808 FILLER_105_51
*809 FILLER_105_55
*810 FILLER_105_57
*811 FILLER_106_1125
*812 FILLER_106_1137
*813 FILLER_106_1145
*814 FILLER_106_1148
*815 FILLER_106_1160
*816 FILLER_106_15
*817 FILLER_106_27
*818 FILLER_106_29
*819 FILLER_106_3
*820 FILLER_106_41
*821 FILLER_106_49
*822 FILLER_107_1122
*823 FILLER_107_1134
*824 FILLER_107_1146
*825 FILLER_107_1158
*826 FILLER_107_1166
*827 FILLER_107_15
*828 FILLER_107_27
*829 FILLER_107_3
*830 FILLER_107_39
*831 FILLER_107_51
*832 FILLER_107_55
*833 FILLER_107_57
*834 FILLER_107_65
*835 FILLER_108_1122
*836 FILLER_108_1134
*837 FILLER_108_1146
*838 FILLER_108_1148
*839 FILLER_108_1160
*840 FILLER_108_15
*841 FILLER_108_27
*842 FILLER_108_29
*843 FILLER_108_3
*844 FILLER_108_41
*845 FILLER_108_53
*846 FILLER_108_65
*847 FILLER_109_1122
*848 FILLER_109_1134
*849 FILLER_109_1146
*850 FILLER_109_1158
*851 FILLER_109_1166
*852 FILLER_109_15
*853 FILLER_109_27
*854 FILLER_109_3
*855 FILLER_109_39
*856 FILLER_109_51
*857 FILLER_109_55
*858 FILLER_109_57
*859 FILLER_109_69
*860 FILLER_10_1122
*861 FILLER_10_1134
*862 FILLER_10_1146
*863 FILLER_10_1148
*864 FILLER_10_1160
*865 FILLER_10_13
*866 FILLER_10_25
*867 FILLER_10_29
*868 FILLER_10_41
*869 FILLER_10_53
*870 FILLER_10_65
*871 FILLER_110_1122
*872 FILLER_110_1134
*873 FILLER_110_1146
*874 FILLER_110_1148
*875 FILLER_110_1160
*876 FILLER_110_15
*877 FILLER_110_27
*878 FILLER_110_29
*879 FILLER_110_3
*880 FILLER_110_41
*881 FILLER_110_53
*882 FILLER_110_65
*883 FILLER_111_1122
*884 FILLER_111_1134
*885 FILLER_111_1146
*886 FILLER_111_1158
*887 FILLER_111_1166
*888 FILLER_111_15
*889 FILLER_111_27
*890 FILLER_111_3
*891 FILLER_111_39
*892 FILLER_111_51
*893 FILLER_111_55
*894 FILLER_111_57
*895 FILLER_111_69
*896 FILLER_112_1122
*897 FILLER_112_1134
*898 FILLER_112_1146
*899 FILLER_112_1148
*900 FILLER_112_1160
*901 FILLER_112_15
*902 FILLER_112_27
*903 FILLER_112_29
*904 FILLER_112_3
*905 FILLER_112_41
*906 FILLER_112_53
*907 FILLER_112_65
*908 FILLER_113_1122
*909 FILLER_113_1134
*910 FILLER_113_1146
*911 FILLER_113_1158
*912 FILLER_113_1166
*913 FILLER_113_15
*914 FILLER_113_27
*915 FILLER_113_3
*916 FILLER_113_39
*917 FILLER_113_51
*918 FILLER_113_55
*919 FILLER_113_57
*920 FILLER_113_69
*921 FILLER_114_1122
*922 FILLER_114_1134
*923 FILLER_114_1146
*924 FILLER_114_1148
*925 FILLER_114_1160
*926 FILLER_114_15
*927 FILLER_114_27
*928 FILLER_114_29
*929 FILLER_114_3
*930 FILLER_114_41
*931 FILLER_114_53
*932 FILLER_114_65
*933 FILLER_115_1122
*934 FILLER_115_1134
*935 FILLER_115_1146
*936 FILLER_115_1158
*937 FILLER_115_1166
*938 FILLER_115_15
*939 FILLER_115_27
*940 FILLER_115_3
*941 FILLER_115_39
*942 FILLER_115_51
*943 FILLER_115_55
*944 FILLER_115_57
*945 FILLER_115_69
*946 FILLER_116_1122
*947 FILLER_116_1134
*948 FILLER_116_1146
*949 FILLER_116_1148
*950 FILLER_116_1160
*951 FILLER_116_15
*952 FILLER_116_27
*953 FILLER_116_29
*954 FILLER_116_3
*955 FILLER_116_41
*956 FILLER_116_53
*957 FILLER_116_65
*958 FILLER_117_1009
*959 FILLER_117_1035
*960 FILLER_117_1041
*961 FILLER_117_1053
*962 FILLER_117_1061
*963 FILLER_117_1065
*964 FILLER_117_1077
*965 FILLER_117_1089
*966 FILLER_117_109
*967 FILLER_117_1093
*968 FILLER_117_1105
*969 FILLER_117_1117
*970 FILLER_117_1121
*971 FILLER_117_113
*972 FILLER_117_1133
*973 FILLER_117_1145
*974 FILLER_117_1149
*975 FILLER_117_1161
*976 FILLER_117_1167
*977 FILLER_117_125
*978 FILLER_117_137
*979 FILLER_117_141
*980 FILLER_117_15
*981 FILLER_117_153
*982 FILLER_117_165
*983 FILLER_117_169
*984 FILLER_117_181
*985 FILLER_117_193
*986 FILLER_117_197
*987 FILLER_117_209
*988 FILLER_117_221
*989 FILLER_117_225
*990 FILLER_117_237
*991 FILLER_117_249
*992 FILLER_117_253
*993 FILLER_117_265
*994 FILLER_117_27
*995 FILLER_117_277
*996 FILLER_117_281
*997 FILLER_117_29
*998 FILLER_117_293
*999 FILLER_117_3
*1000 FILLER_117_305
*1001 FILLER_117_309
*1002 FILLER_117_321
*1003 FILLER_117_333
*1004 FILLER_117_337
*1005 FILLER_117_349
*1006 FILLER_117_361
*1007 FILLER_117_365
*1008 FILLER_117_377
*1009 FILLER_117_382
*1010 FILLER_117_390
*1011 FILLER_117_393
*1012 FILLER_117_405
*1013 FILLER_117_41
*1014 FILLER_117_410
*1015 FILLER_117_418
*1016 FILLER_117_421
*1017 FILLER_117_433
*1018 FILLER_117_437
*1019 FILLER_117_445
*1020 FILLER_117_449
*1021 FILLER_117_461
*1022 FILLER_117_464
*1023 FILLER_117_477
*1024 FILLER_117_491
*1025 FILLER_117_503
*1026 FILLER_117_505
*1027 FILLER_117_513
*1028 FILLER_117_518
*1029 FILLER_117_53
*1030 FILLER_117_530
*1031 FILLER_117_533
*1032 FILLER_117_541
*1033 FILLER_117_545
*1034 FILLER_117_557
*1035 FILLER_117_561
*1036 FILLER_117_569
*1037 FILLER_117_57
*1038 FILLER_117_572
*1039 FILLER_117_584
*1040 FILLER_117_589
*1041 FILLER_117_597
*1042 FILLER_117_600
*1043 FILLER_117_612
*1044 FILLER_117_617
*1045 FILLER_117_627
*1046 FILLER_117_639
*1047 FILLER_117_643
*1048 FILLER_117_645
*1049 FILLER_117_651
*1050 FILLER_117_654
*1051 FILLER_117_666
*1052 FILLER_117_673
*1053 FILLER_117_681
*1054 FILLER_117_69
*1055 FILLER_117_693
*1056 FILLER_117_699
*1057 FILLER_117_701
*1058 FILLER_117_705
*1059 FILLER_117_708
*1060 FILLER_117_720
*1061 FILLER_117_729
*1062 FILLER_117_735
*1063 FILLER_117_747
*1064 FILLER_117_755
*1065 FILLER_117_757
*1066 FILLER_117_762
*1067 FILLER_117_774
*1068 FILLER_117_782
*1069 FILLER_117_785
*1070 FILLER_117_789
*1071 FILLER_117_801
*1072 FILLER_117_809
*1073 FILLER_117_81
*1074 FILLER_117_813
*1075 FILLER_117_825
*1076 FILLER_117_837
*1077 FILLER_117_841
*1078 FILLER_117_85
*1079 FILLER_117_853
*1080 FILLER_117_865
*1081 FILLER_117_869
*1082 FILLER_117_881
*1083 FILLER_117_893
*1084 FILLER_117_897
*1085 FILLER_117_909
*1086 FILLER_117_913
*1087 FILLER_117_920
*1088 FILLER_117_97
*1089 FILLER_117_979
*1090 FILLER_117_996
*1091 FILLER_118_1001
*1092 FILLER_118_1013
*1093 FILLER_118_1025
*1094 FILLER_118_1033
*1095 FILLER_118_1037
*1096 FILLER_118_1049
*1097 FILLER_118_1061
*1098 FILLER_118_1073
*1099 FILLER_118_1085
*1100 FILLER_118_109
*1101 FILLER_118_1091
*1102 FILLER_118_1093
*1103 FILLER_118_1105
*1104 FILLER_118_1117
*1105 FILLER_118_1129
*1106 FILLER_118_1141
*1107 FILLER_118_1147
*1108 FILLER_118_1149
*1109 FILLER_118_1161
*1110 FILLER_118_1167
*1111 FILLER_118_121
*1112 FILLER_118_133
*1113 FILLER_118_139
*1114 FILLER_118_141
*1115 FILLER_118_15
*1116 FILLER_118_153
*1117 FILLER_118_165
*1118 FILLER_118_177
*1119 FILLER_118_189
*1120 FILLER_118_195
*1121 FILLER_118_197
*1122 FILLER_118_209
*1123 FILLER_118_221
*1124 FILLER_118_233
*1125 FILLER_118_245
*1126 FILLER_118_251
*1127 FILLER_118_253
*1128 FILLER_118_265
*1129 FILLER_118_27
*1130 FILLER_118_277
*1131 FILLER_118_289
*1132 FILLER_118_29
*1133 FILLER_118_3
*1134 FILLER_118_301
*1135 FILLER_118_307
*1136 FILLER_118_309
*1137 FILLER_118_321
*1138 FILLER_118_333
*1139 FILLER_118_345
*1140 FILLER_118_357
*1141 FILLER_118_363
*1142 FILLER_118_365
*1143 FILLER_118_377
*1144 FILLER_118_389
*1145 FILLER_118_401
*1146 FILLER_118_41
*1147 FILLER_118_413
*1148 FILLER_118_419
*1149 FILLER_118_421
*1150 FILLER_118_433
*1151 FILLER_118_445
*1152 FILLER_118_457
*1153 FILLER_118_469
*1154 FILLER_118_475
*1155 FILLER_118_477
*1156 FILLER_118_489
*1157 FILLER_118_501
*1158 FILLER_118_513
*1159 FILLER_118_525
*1160 FILLER_118_53
*1161 FILLER_118_531
*1162 FILLER_118_533
*1163 FILLER_118_545
*1164 FILLER_118_557
*1165 FILLER_118_569
*1166 FILLER_118_581
*1167 FILLER_118_587
*1168 FILLER_118_589
*1169 FILLER_118_601
*1170 FILLER_118_613
*1171 FILLER_118_625
*1172 FILLER_118_637
*1173 FILLER_118_643
*1174 FILLER_118_645
*1175 FILLER_118_65
*1176 FILLER_118_657
*1177 FILLER_118_669
*1178 FILLER_118_681
*1179 FILLER_118_693
*1180 FILLER_118_699
*1181 FILLER_118_701
*1182 FILLER_118_713
*1183 FILLER_118_725
*1184 FILLER_118_737
*1185 FILLER_118_749
*1186 FILLER_118_755
*1187 FILLER_118_757
*1188 FILLER_118_769
*1189 FILLER_118_77
*1190 FILLER_118_781
*1191 FILLER_118_793
*1192 FILLER_118_805
*1193 FILLER_118_811
*1194 FILLER_118_813
*1195 FILLER_118_825
*1196 FILLER_118_83
*1197 FILLER_118_837
*1198 FILLER_118_849
*1199 FILLER_118_85
*1200 FILLER_118_861
*1201 FILLER_118_867
*1202 FILLER_118_869
*1203 FILLER_118_881
*1204 FILLER_118_893
*1205 FILLER_118_927
*1206 FILLER_118_935
*1207 FILLER_118_97
*1208 FILLER_118_979
*1209 FILLER_118_989
*1210 FILLER_119_1005
*1211 FILLER_119_1009
*1212 FILLER_119_1021
*1213 FILLER_119_1033
*1214 FILLER_119_1045
*1215 FILLER_119_105
*1216 FILLER_119_1057
*1217 FILLER_119_1063
*1218 FILLER_119_1065
*1219 FILLER_119_1077
*1220 FILLER_119_1089
*1221 FILLER_119_1101
*1222 FILLER_119_111
*1223 FILLER_119_1113
*1224 FILLER_119_1119
*1225 FILLER_119_1121
*1226 FILLER_119_113
*1227 FILLER_119_1133
*1228 FILLER_119_1145
*1229 FILLER_119_1157
*1230 FILLER_119_1165
*1231 FILLER_119_125
*1232 FILLER_119_137
*1233 FILLER_119_149
*1234 FILLER_119_15
*1235 FILLER_119_161
*1236 FILLER_119_167
*1237 FILLER_119_169
*1238 FILLER_119_181
*1239 FILLER_119_193
*1240 FILLER_119_205
*1241 FILLER_119_217
*1242 FILLER_119_223
*1243 FILLER_119_225
*1244 FILLER_119_237
*1245 FILLER_119_249
*1246 FILLER_119_261
*1247 FILLER_119_27
*1248 FILLER_119_273
*1249 FILLER_119_279
*1250 FILLER_119_281
*1251 FILLER_119_293
*1252 FILLER_119_3
*1253 FILLER_119_305
*1254 FILLER_119_317
*1255 FILLER_119_329
*1256 FILLER_119_335
*1257 FILLER_119_337
*1258 FILLER_119_349
*1259 FILLER_119_361
*1260 FILLER_119_373
*1261 FILLER_119_385
*1262 FILLER_119_39
*1263 FILLER_119_391
*1264 FILLER_119_393
*1265 FILLER_119_405
*1266 FILLER_119_417
*1267 FILLER_119_429
*1268 FILLER_119_441
*1269 FILLER_119_447
*1270 FILLER_119_449
*1271 FILLER_119_461
*1272 FILLER_119_473
*1273 FILLER_119_485
*1274 FILLER_119_497
*1275 FILLER_119_503
*1276 FILLER_119_505
*1277 FILLER_119_51
*1278 FILLER_119_517
*1279 FILLER_119_529
*1280 FILLER_119_541
*1281 FILLER_119_55
*1282 FILLER_119_553
*1283 FILLER_119_559
*1284 FILLER_119_561
*1285 FILLER_119_57
*1286 FILLER_119_573
*1287 FILLER_119_585
*1288 FILLER_119_597
*1289 FILLER_119_609
*1290 FILLER_119_615
*1291 FILLER_119_617
*1292 FILLER_119_629
*1293 FILLER_119_641
*1294 FILLER_119_653
*1295 FILLER_119_665
*1296 FILLER_119_671
*1297 FILLER_119_673
*1298 FILLER_119_685
*1299 FILLER_119_69
*1300 FILLER_119_697
*1301 FILLER_119_709
*1302 FILLER_119_721
*1303 FILLER_119_727
*1304 FILLER_119_729
*1305 FILLER_119_741
*1306 FILLER_119_753
*1307 FILLER_119_765
*1308 FILLER_119_777
*1309 FILLER_119_783
*1310 FILLER_119_785
*1311 FILLER_119_797
*1312 FILLER_119_809
*1313 FILLER_119_81
*1314 FILLER_119_821
*1315 FILLER_119_833
*1316 FILLER_119_839
*1317 FILLER_119_841
*1318 FILLER_119_853
*1319 FILLER_119_865
*1320 FILLER_119_877
*1321 FILLER_119_889
*1322 FILLER_119_895
*1323 FILLER_119_897
*1324 FILLER_119_901
*1325 FILLER_119_908
*1326 FILLER_119_920
*1327 FILLER_119_928
*1328 FILLER_119_93
*1329 FILLER_119_993
*1330 FILLER_11_1122
*1331 FILLER_11_1134
*1332 FILLER_11_1146
*1333 FILLER_11_1158
*1334 FILLER_11_1166
*1335 FILLER_11_15
*1336 FILLER_11_27
*1337 FILLER_11_39
*1338 FILLER_11_51
*1339 FILLER_11_55
*1340 FILLER_11_57
*1341 FILLER_11_69
*1342 FILLER_120_1005
*1343 FILLER_120_1017
*1344 FILLER_120_1029
*1345 FILLER_120_1035
*1346 FILLER_120_1037
*1347 FILLER_120_1049
*1348 FILLER_120_1061
*1349 FILLER_120_1073
*1350 FILLER_120_1085
*1351 FILLER_120_109
*1352 FILLER_120_1091
*1353 FILLER_120_1093
*1354 FILLER_120_1105
*1355 FILLER_120_1117
*1356 FILLER_120_1129
*1357 FILLER_120_1141
*1358 FILLER_120_1147
*1359 FILLER_120_1149
*1360 FILLER_120_1157
*1361 FILLER_120_121
*1362 FILLER_120_133
*1363 FILLER_120_139
*1364 FILLER_120_141
*1365 FILLER_120_15
*1366 FILLER_120_153
*1367 FILLER_120_165
*1368 FILLER_120_177
*1369 FILLER_120_189
*1370 FILLER_120_195
*1371 FILLER_120_197
*1372 FILLER_120_209
*1373 FILLER_120_221
*1374 FILLER_120_233
*1375 FILLER_120_245
*1376 FILLER_120_251
*1377 FILLER_120_253
*1378 FILLER_120_265
*1379 FILLER_120_27
*1380 FILLER_120_277
*1381 FILLER_120_289
*1382 FILLER_120_29
*1383 FILLER_120_3
*1384 FILLER_120_301
*1385 FILLER_120_307
*1386 FILLER_120_309
*1387 FILLER_120_321
*1388 FILLER_120_333
*1389 FILLER_120_345
*1390 FILLER_120_357
*1391 FILLER_120_363
*1392 FILLER_120_365
*1393 FILLER_120_377
*1394 FILLER_120_389
*1395 FILLER_120_401
*1396 FILLER_120_41
*1397 FILLER_120_413
*1398 FILLER_120_419
*1399 FILLER_120_421
*1400 FILLER_120_433
*1401 FILLER_120_445
*1402 FILLER_120_457
*1403 FILLER_120_469
*1404 FILLER_120_475
*1405 FILLER_120_477
*1406 FILLER_120_489
*1407 FILLER_120_501
*1408 FILLER_120_513
*1409 FILLER_120_525
*1410 FILLER_120_53
*1411 FILLER_120_531
*1412 FILLER_120_533
*1413 FILLER_120_545
*1414 FILLER_120_557
*1415 FILLER_120_569
*1416 FILLER_120_581
*1417 FILLER_120_587
*1418 FILLER_120_589
*1419 FILLER_120_601
*1420 FILLER_120_613
*1421 FILLER_120_625
*1422 FILLER_120_637
*1423 FILLER_120_643
*1424 FILLER_120_645
*1425 FILLER_120_65
*1426 FILLER_120_657
*1427 FILLER_120_669
*1428 FILLER_120_681
*1429 FILLER_120_693
*1430 FILLER_120_699
*1431 FILLER_120_701
*1432 FILLER_120_713
*1433 FILLER_120_725
*1434 FILLER_120_737
*1435 FILLER_120_749
*1436 FILLER_120_755
*1437 FILLER_120_757
*1438 FILLER_120_769
*1439 FILLER_120_77
*1440 FILLER_120_781
*1441 FILLER_120_793
*1442 FILLER_120_805
*1443 FILLER_120_811
*1444 FILLER_120_813
*1445 FILLER_120_825
*1446 FILLER_120_83
*1447 FILLER_120_837
*1448 FILLER_120_849
*1449 FILLER_120_85
*1450 FILLER_120_861
*1451 FILLER_120_867
*1452 FILLER_120_869
*1453 FILLER_120_881
*1454 FILLER_120_893
*1455 FILLER_120_905
*1456 FILLER_120_917
*1457 FILLER_120_923
*1458 FILLER_120_928
*1459 FILLER_120_940
*1460 FILLER_120_948
*1461 FILLER_120_954
*1462 FILLER_120_965
*1463 FILLER_120_97
*1464 FILLER_120_973
*1465 FILLER_120_979
*1466 FILLER_120_981
*1467 FILLER_120_993
*1468 FILLER_121_1006
*1469 FILLER_121_1009
*1470 FILLER_121_1021
*1471 FILLER_121_1033
*1472 FILLER_121_1045
*1473 FILLER_121_105
*1474 FILLER_121_1057
*1475 FILLER_121_1063
*1476 FILLER_121_1065
*1477 FILLER_121_1077
*1478 FILLER_121_1089
*1479 FILLER_121_1101
*1480 FILLER_121_111
*1481 FILLER_121_1113
*1482 FILLER_121_1119
*1483 FILLER_121_1121
*1484 FILLER_121_113
*1485 FILLER_121_1133
*1486 FILLER_121_1145
*1487 FILLER_121_1157