*SPEF "ieee 1481-1999"
*DESIGN "counter"
*DATE "16:33:16 Monday March 03, 2025"
*VENDOR "The OpenROAD Project"
*PROGRAM "OpenROAD"
*VERSION "edf00dff99f6c40d67a30c0e22a8191c5d2ed9d6"
*DESIGN_FLOW "NAME_SCOPE LOCAL" "PIN_CAP NONE"
*DIVIDER /
*DELIMITER :
*BUS_DELIMITER []
*T_UNIT 1 NS
*C_UNIT 1 PF
*R_UNIT 1 OHM
*L_UNIT 1 HENRY

*NAME_MAP
*1 addr0[0]
*2 addr0[1]
*3 addr0[2]
*4 addr0[3]
*5 addr0[4]
*6 addr0[5]
*7 addr0[6]
*8 addr0[7]
*9 clk
*10 csb0
*11 din0[0]
*12 din0[10]
*13 din0[11]
*14 din0[12]
*15 din0[13]
*16 din0[14]
*17 din0[15]
*18 din0[1]
*19 din0[2]
*20 din0[3]
*21 din0[4]
*22 din0[5]
*23 din0[6]
*24 din0[7]
*25 din0[8]
*26 din0[9]
*27 rst
*28 sine_out[0]
*29 sine_out[10]
*30 sine_out[11]
*31 sine_out[12]
*32 sine_out[13]
*33 sine_out[14]
*34 sine_out[15]
*35 sine_out[1]
*36 sine_out[2]
*37 sine_out[3]
*38 sine_out[4]
*39 sine_out[5]
*40 sine_out[6]
*41 sine_out[7]
*42 sine_out[8]
*43 sine_out[9]
*46 _000_
*47 _001_
*48 _002_
*49 _003_
*50 _004_
*51 _005_
*52 _006_
*53 _007_
*54 _008_
*55 _009_
*56 _010_
*57 _011_
*58 _012_
*59 _013_
*60 _014_
*61 _015_
*62 _016_
*63 _017_
*64 _018_
*65 _019_
*66 _020_
*67 _021_
*68 _022_
*69 _023_
*70 _024_
*71 _025_
*72 _026_
*73 _027_
*74 _028_
*75 _029_
*76 _030_
*77 _031_
*78 _032_
*79 _033_
*80 _034_
*81 _035_
*82 _036_
*83 _037_
*84 _038_
*85 clknet_0_clk
*86 clknet_1_0__leaf_clk
*87 clknet_1_1__leaf_clk
*88 net1
*89 net10
*90 net11
*91 net12
*92 net13
*93 net14
*94 net15
*95 net16
*96 net17
*97 net18
*98 net19
*99 net2
*100 net20
*101 net21
*102 net22
*103 net23
*104 net24
*105 net25
*106 net3
*107 net4
*108 net5
*109 net6
*110 net7
*111 net8
*112 net9
*113 sine_out_temp\[0\]
*114 sine_out_temp\[10\]
*115 sine_out_temp\[11\]
*116 sine_out_temp\[12\]
*117 sine_out_temp\[13\]
*118 sine_out_temp\[14\]
*119 sine_out_temp\[15\]
*120 sine_out_temp\[1\]
*121 sine_out_temp\[2\]
*122 sine_out_temp\[3\]
*123 sine_out_temp\[4\]
*124 sine_out_temp\[5\]
*125 sine_out_temp\[6\]
*126 sine_out_temp\[7\]
*127 sine_out_temp\[8\]
*128 sine_out_temp\[9\]
*129 tcout\[0\]
*130 tcout\[1\]
*131 tcout\[2\]
*132 tcout\[3\]
*133 tcout\[4\]
*134 tcout\[5\]
*135 tcout\[6\]
*136 tcout\[7\]
*137 ANTENNA_1
*138 ANTENNA_2
*139 ANTENNA_3
*140 ANTENNA_4
*141 FILLER_0_1005
*142 FILLER_0_1009
*143 FILLER_0_1021
*144 FILLER_0_1033
*145 FILLER_0_1037
*146 FILLER_0_1049
*147 FILLER_0_1061
*148 FILLER_0_1065
*149 FILLER_0_1077
*150 FILLER_0_1089
*151 FILLER_0_109
*152 FILLER_0_1093
*153 FILLER_0_1105
*154 FILLER_0_1117
*155 FILLER_0_1121
*156 FILLER_0_113
*157 FILLER_0_1133
*158 FILLER_0_1145
*159 FILLER_0_1149
*160 FILLER_0_1161
*161 FILLER_0_1173
*162 FILLER_0_1177
*163 FILLER_0_1189
*164 FILLER_0_125
*165 FILLER_0_137
*166 FILLER_0_141
*167 FILLER_0_15
*168 FILLER_0_153
*169 FILLER_0_165
*170 FILLER_0_169
*171 FILLER_0_181
*172 FILLER_0_193
*173 FILLER_0_197
*174 FILLER_0_209
*175 FILLER_0_221
*176 FILLER_0_225
*177 FILLER_0_237
*178 FILLER_0_249
*179 FILLER_0_253
*180 FILLER_0_265
*181 FILLER_0_27
*182 FILLER_0_277
*183 FILLER_0_281
*184 FILLER_0_29
*185 FILLER_0_293
*186 FILLER_0_3
*187 FILLER_0_305
*188 FILLER_0_309
*189 FILLER_0_321
*190 FILLER_0_333
*191 FILLER_0_337
*192 FILLER_0_349
*193 FILLER_0_361
*194 FILLER_0_365
*195 FILLER_0_377
*196 FILLER_0_389
*197 FILLER_0_393
*198 FILLER_0_405
*199 FILLER_0_41
*200 FILLER_0_417
*201 FILLER_0_421
*202 FILLER_0_433
*203 FILLER_0_445
*204 FILLER_0_449
*205 FILLER_0_461
*206 FILLER_0_473
*207 FILLER_0_477
*208 FILLER_0_489
*209 FILLER_0_501
*210 FILLER_0_505
*211 FILLER_0_517
*212 FILLER_0_529
*213 FILLER_0_53
*214 FILLER_0_533
*215 FILLER_0_545
*216 FILLER_0_557
*217 FILLER_0_561
*218 FILLER_0_57
*219 FILLER_0_573
*220 FILLER_0_585
*221 FILLER_0_589
*222 FILLER_0_601
*223 FILLER_0_613
*224 FILLER_0_617
*225 FILLER_0_629
*226 FILLER_0_641
*227 FILLER_0_645
*228 FILLER_0_657
*229 FILLER_0_669
*230 FILLER_0_673
*231 FILLER_0_685
*232 FILLER_0_69
*233 FILLER_0_697
*234 FILLER_0_701
*235 FILLER_0_713
*236 FILLER_0_725
*237 FILLER_0_729
*238 FILLER_0_741
*239 FILLER_0_753
*240 FILLER_0_757
*241 FILLER_0_769
*242 FILLER_0_781
*243 FILLER_0_785
*244 FILLER_0_797
*245 FILLER_0_809
*246 FILLER_0_81
*247 FILLER_0_813
*248 FILLER_0_825
*249 FILLER_0_837
*250 FILLER_0_841
*251 FILLER_0_85
*252 FILLER_0_853
*253 FILLER_0_865
*254 FILLER_0_869
*255 FILLER_0_881
*256 FILLER_0_893
*257 FILLER_0_897
*258 FILLER_0_909
*259 FILLER_0_921
*260 FILLER_0_925
*261 FILLER_0_937
*262 FILLER_0_949
*263 FILLER_0_953
*264 FILLER_0_965
*265 FILLER_0_97
*266 FILLER_0_977
*267 FILLER_0_981
*268 FILLER_0_993
*269 FILLER_100_1122
*270 FILLER_100_1131
*271 FILLER_100_1143
*272 FILLER_100_1148
*273 FILLER_100_1160
*274 FILLER_100_1172
*275 FILLER_100_1184
*276 FILLER_100_15
*277 FILLER_100_27
*278 FILLER_100_29
*279 FILLER_100_3
*280 FILLER_100_41
*281 FILLER_100_53
*282 FILLER_100_65
*283 FILLER_101_1145
*284 FILLER_101_1157
*285 FILLER_101_1169
*286 FILLER_101_1176
*287 FILLER_101_1188
*288 FILLER_101_15
*289 FILLER_101_27
*290 FILLER_101_3
*291 FILLER_101_39
*292 FILLER_101_51
*293 FILLER_101_55
*294 FILLER_101_57
*295 FILLER_101_69
*296 FILLER_102_1122
*297 FILLER_102_1134
*298 FILLER_102_1146
*299 FILLER_102_1148
*300 FILLER_102_1160
*301 FILLER_102_1172
*302 FILLER_102_1184
*303 FILLER_102_15
*304 FILLER_102_27
*305 FILLER_102_29
*306 FILLER_102_3
*307 FILLER_102_41
*308 FILLER_102_53
*309 FILLER_102_65
*310 FILLER_103_1122
*311 FILLER_103_1134
*312 FILLER_103_1146
*313 FILLER_103_1158
*314 FILLER_103_1170
*315 FILLER_103_1174
*316 FILLER_103_1176
*317 FILLER_103_1188
*318 FILLER_103_15
*319 FILLER_103_27
*320 FILLER_103_3
*321 FILLER_103_39
*322 FILLER_103_51
*323 FILLER_103_55
*324 FILLER_103_57
*325 FILLER_103_69
*326 FILLER_104_1122
*327 FILLER_104_1134
*328 FILLER_104_1146
*329 FILLER_104_1148
*330 FILLER_104_1160
*331 FILLER_104_1172
*332 FILLER_104_1184
*333 FILLER_104_15
*334 FILLER_104_27
*335 FILLER_104_29
*336 FILLER_104_3
*337 FILLER_104_41
*338 FILLER_104_53
*339 FILLER_104_65
*340 FILLER_105_1122
*341 FILLER_105_1134
*342 FILLER_105_1146
*343 FILLER_105_1158
*344 FILLER_105_1170
*345 FILLER_105_1174
*346 FILLER_105_1176
*347 FILLER_105_1188
*348 FILLER_105_15
*349 FILLER_105_27
*350 FILLER_105_3
*351 FILLER_105_39
*352 FILLER_105_51
*353 FILLER_105_55
*354 FILLER_105_57
*355 FILLER_105_69
*356 FILLER_106_1125
*357 FILLER_106_1137
*358 FILLER_106_1145
*359 FILLER_106_1148
*360 FILLER_106_1160
*361 FILLER_106_1172
*362 FILLER_106_1184
*363 FILLER_106_15
*364 FILLER_106_27
*365 FILLER_106_29
*366 FILLER_106_3
*367 FILLER_106_41
*368 FILLER_106_53
*369 FILLER_106_65
*370 FILLER_107_1122
*371 FILLER_107_1134
*372 FILLER_107_1146
*373 FILLER_107_1158
*374 FILLER_107_1170
*375 FILLER_107_1174
*376 FILLER_107_1176
*377 FILLER_107_1188
*378 FILLER_107_15
*379 FILLER_107_27
*380 FILLER_107_3
*381 FILLER_107_39
*382 FILLER_107_51
*383 FILLER_107_55
*384 FILLER_107_57
*385 FILLER_107_69
*386 FILLER_108_1122
*387 FILLER_108_1134
*388 FILLER_108_1146
*389 FILLER_108_1148
*390 FILLER_108_1160
*391 FILLER_108_1172
*392 FILLER_108_1184
*393 FILLER_108_15
*394 FILLER_108_27
*395 FILLER_108_29
*396 FILLER_108_3
*397 FILLER_108_41
*398 FILLER_108_53
*399 FILLER_108_65
*400 FILLER_109_1122
*401 FILLER_109_1134
*402 FILLER_109_1146
*403 FILLER_109_1158
*404 FILLER_109_1170
*405 FILLER_109_1174
*406 FILLER_109_1176
*407 FILLER_109_1188
*408 FILLER_109_15
*409 FILLER_109_27
*410 FILLER_109_3
*411 FILLER_109_39
*412 FILLER_109_51
*413 FILLER_109_55
*414 FILLER_109_57
*415 FILLER_109_69
*416 FILLER_10_1122
*417 FILLER_10_1134
*418 FILLER_10_1146
*419 FILLER_10_1148
*420 FILLER_10_1160
*421 FILLER_10_1172
*422 FILLER_10_1184
*423 FILLER_10_15
*424 FILLER_10_27
*425 FILLER_10_29
*426 FILLER_10_3
*427 FILLER_10_41
*428 FILLER_10_53
*429 FILLER_10_65
*430 FILLER_110_1122
*431 FILLER_110_1134
*432 FILLER_110_1146
*433 FILLER_110_1148
*434 FILLER_110_1160
*435 FILLER_110_1172
*436 FILLER_110_1184
*437 FILLER_110_15
*438 FILLER_110_27
*439 FILLER_110_29
*440 FILLER_110_3
*441 FILLER_110_41
*442 FILLER_110_53
*443 FILLER_110_65
*444 FILLER_111_1122
*445 FILLER_111_1134
*446 FILLER_111_1146
*447 FILLER_111_1158
*448 FILLER_111_1170
*449 FILLER_111_1174
*450 FILLER_111_1176
*451 FILLER_111_1188
*452 FILLER_111_15
*453 FILLER_111_27
*454 FILLER_111_3
*455 FILLER_111_39
*456 FILLER_111_51
*457 FILLER_111_55
*458 FILLER_111_57
*459 FILLER_111_69
*460 FILLER_112_1122
*461 FILLER_112_1134
*462 FILLER_112_1146
*463 FILLER_112_1148
*464 FILLER_112_1160
*465 FILLER_112_1172
*466 FILLER_112_1184
*467 FILLER_112_15
*468 FILLER_112_27
*469 FILLER_112_29
*470 FILLER_112_3
*471 FILLER_112_41
*472 FILLER_112_53
*473 FILLER_112_65
*474 FILLER_113_1122
*475 FILLER_113_1134
*476 FILLER_113_1146
*477 FILLER_113_1158
*478 FILLER_113_1170
*479 FILLER_113_1174
*480 FILLER_113_1176
*481 FILLER_113_1188
*482 FILLER_113_15
*483 FILLER_113_27
*484 FILLER_113_3
*485 FILLER_113_39
*486 FILLER_113_51
*487 FILLER_113_55
*488 FILLER_113_57
*489 FILLER_113_69
*490 FILLER_114_1122
*491 FILLER_114_1134
*492 FILLER_114_1146
*493 FILLER_114_1148
*494 FILLER_114_1160
*495 FILLER_114_1172
*496 FILLER_114_1184
*497 FILLER_114_15
*498 FILLER_114_27
*499 FILLER_114_29
*500 FILLER_114_3
*501 FILLER_114_41
*502 FILLER_114_53
*503 FILLER_114_65
*504 FILLER_115_1122
*505 FILLER_115_1134
*506 FILLER_115_1146
*507 FILLER_115_1158
*508 FILLER_115_1170
*509 FILLER_115_1174
*510 FILLER_115_1176
*511 FILLER_115_1188
*512 FILLER_115_15
*513 FILLER_115_27
*514 FILLER_115_3
*515 FILLER_115_39
*516 FILLER_115_51
*517 FILLER_115_55
*518 FILLER_115_57
*519 FILLER_115_69
*520 FILLER_116_1122
*521 FILLER_116_1134
*522 FILLER_116_1146
*523 FILLER_116_1148
*524 FILLER_116_1160
*525 FILLER_116_1172
*526 FILLER_116_1184
*527 FILLER_116_15
*528 FILLER_116_27
*529 FILLER_116_29
*530 FILLER_116_3
*531 FILLER_116_41
*532 FILLER_116_53
*533 FILLER_116_65
*534 FILLER_117_1002
*535 FILLER_117_1009
*536 FILLER_117_1021
*537 FILLER_117_1033
*538 FILLER_117_1037
*539 FILLER_117_1049
*540 FILLER_117_1061
*541 FILLER_117_1065
*542 FILLER_117_1077
*543 FILLER_117_1089
*544 FILLER_117_109
*545 FILLER_117_1093
*546 FILLER_117_1105
*547 FILLER_117_1117
*548 FILLER_117_1121
*549 FILLER_117_113
*550 FILLER_117_1133
*551 FILLER_117_1145
*552 FILLER_117_1149
*553 FILLER_117_1161
*554 FILLER_117_1173
*555 FILLER_117_1177
*556 FILLER_117_1189
*557 FILLER_117_125
*558 FILLER_117_137
*559 FILLER_117_141
*560 FILLER_117_15
*561 FILLER_117_153
*562 FILLER_117_165
*563 FILLER_117_169
*564 FILLER_117_181
*565 FILLER_117_193
*566 FILLER_117_197
*567 FILLER_117_209
*568 FILLER_117_221
*569 FILLER_117_225
*570 FILLER_117_237
*571 FILLER_117_249
*572 FILLER_117_253
*573 FILLER_117_265
*574 FILLER_117_27
*575 FILLER_117_277
*576 FILLER_117_281
*577 FILLER_117_29
*578 FILLER_117_293
*579 FILLER_117_3
*580 FILLER_117_305
*581 FILLER_117_309
*582 FILLER_117_321
*583 FILLER_117_333
*584 FILLER_117_337
*585 FILLER_117_349
*586 FILLER_117_361
*587 FILLER_117_365
*588 FILLER_117_377
*589 FILLER_117_389
*590 FILLER_117_393
*591 FILLER_117_405
*592 FILLER_117_41
*593 FILLER_117_417
*594 FILLER_117_421
*595 FILLER_117_433
*596 FILLER_117_445
*597 FILLER_117_449
*598 FILLER_117_461
*599 FILLER_117_473
*600 FILLER_117_477
*601 FILLER_117_489
*602 FILLER_117_501
*603 FILLER_117_505
*604 FILLER_117_513
*605 FILLER_117_519
*606 FILLER_117_53
*607 FILLER_117_531
*608 FILLER_117_533
*609 FILLER_117_539
*610 FILLER_117_551
*611 FILLER_117_561
*612 FILLER_117_57
*613 FILLER_117_573
*614 FILLER_117_577
*615 FILLER_117_585
*616 FILLER_117_589
*617 FILLER_117_595
*618 FILLER_117_620
*619 FILLER_117_631
*620 FILLER_117_643
*621 FILLER_117_645
*622 FILLER_117_651
*623 FILLER_117_676
*624 FILLER_117_684
*625 FILLER_117_69
*626 FILLER_117_695
*627 FILLER_117_699
*628 FILLER_117_701
*629 FILLER_117_710
*630 FILLER_117_722
*631 FILLER_117_729
*632 FILLER_117_741
*633 FILLER_117_746
*634 FILLER_117_754
*635 FILLER_117_757
*636 FILLER_117_766
*637 FILLER_117_778
*638 FILLER_117_788
*639 FILLER_117_800
*640 FILLER_117_81
*641 FILLER_117_816
*642 FILLER_117_828
*643 FILLER_117_841
*644 FILLER_117_85
*645 FILLER_117_853
*646 FILLER_117_865
*647 FILLER_117_869
*648 FILLER_117_881
*649 FILLER_117_893
*650 FILLER_117_897
*651 FILLER_117_909
*652 FILLER_117_921
*653 FILLER_117_925
*654 FILLER_117_937
*655 FILLER_117_949
*656 FILLER_117_953
*657 FILLER_117_965
*658 FILLER_117_97
*659 FILLER_117_977
*660 FILLER_117_981
*661 FILLER_117_990
*662 FILLER_118_1005
*663 FILLER_118_1017
*664 FILLER_118_1029
*665 FILLER_118_1035
*666 FILLER_118_1037
*667 FILLER_118_1049
*668 FILLER_118_1061
*669 FILLER_118_1073
*670 FILLER_118_1085
*671 FILLER_118_109
*672 FILLER_118_1091
*673 FILLER_118_1093
*674 FILLER_118_1105
*675 FILLER_118_1117
*676 FILLER_118_1129
*677 FILLER_118_1141
*678 FILLER_118_1147
*679 FILLER_118_1149
*680 FILLER_118_1161
*681 FILLER_118_1173
*682 FILLER_118_1185
*683 FILLER_118_1189
*684 FILLER_118_121
*685 FILLER_118_133
*686 FILLER_118_139
*687 FILLER_118_141
*688 FILLER_118_15
*689 FILLER_118_153
*690 FILLER_118_165
*691 FILLER_118_177
*692 FILLER_118_189
*693 FILLER_118_195
*694 FILLER_118_197
*695 FILLER_118_209
*696 FILLER_118_221
*697 FILLER_118_233
*698 FILLER_118_245
*699 FILLER_118_251
*700 FILLER_118_253
*701 FILLER_118_265
*702 FILLER_118_27
*703 FILLER_118_277
*704 FILLER_118_289
*705 FILLER_118_29
*706 FILLER_118_3
*707 FILLER_118_301
*708 FILLER_118_307
*709 FILLER_118_309
*710 FILLER_118_321
*711 FILLER_118_333
*712 FILLER_118_345
*713 FILLER_118_357
*714 FILLER_118_363
*715 FILLER_118_365
*716 FILLER_118_377
*717 FILLER_118_389
*718 FILLER_118_401
*719 FILLER_118_41
*720 FILLER_118_413
*721 FILLER_118_419
*722 FILLER_118_421
*723 FILLER_118_433
*724 FILLER_118_445
*725 FILLER_118_457
*726 FILLER_118_469
*727 FILLER_118_475
*728 FILLER_118_477
*729 FILLER_118_489
*730 FILLER_118_501
*731 FILLER_118_513
*732 FILLER_118_525
*733 FILLER_118_53
*734 FILLER_118_531
*735 FILLER_118_533
*736 FILLER_118_545
*737 FILLER_118_569
*738 FILLER_118_581
*739 FILLER_118_587
*740 FILLER_118_589
*741 FILLER_118_601
*742 FILLER_118_613
*743 FILLER_118_625
*744 FILLER_118_637
*745 FILLER_118_643
*746 FILLER_118_645
*747 FILLER_118_65
*748 FILLER_118_653
*749 FILLER_118_675
*750 FILLER_118_687
*751 FILLER_118_699
*752 FILLER_118_701
*753 FILLER_118_713
*754 FILLER_118_725
*755 FILLER_118_737
*756 FILLER_118_749
*757 FILLER_118_755
*758 FILLER_118_757
*759 FILLER_118_765
*760 FILLER_118_77
*761 FILLER_118_788
*762 FILLER_118_800
*763 FILLER_118_813
*764 FILLER_118_825
*765 FILLER_118_83
*766 FILLER_118_837
*767 FILLER_118_849
*768 FILLER_118_85
*769 FILLER_118_861
*770 FILLER_118_867
*771 FILLER_118_869
*772 FILLER_118_881
*773 FILLER_118_893
*774 FILLER_118_905
*775 FILLER_118_917
*776 FILLER_118_923
*777 FILLER_118_925
*778 FILLER_118_937
*779 FILLER_118_949
*780 FILLER_118_961
*781 FILLER_118_97
*782 FILLER_118_973
*783 FILLER_118_979
*784 FILLER_118_981
*785 FILLER_118_993
*786 FILLER_119_1001
*787 FILLER_119_1007
*788 FILLER_119_1009
*789 FILLER_119_1021
*790 FILLER_119_1033
*791 FILLER_119_1045
*792 FILLER_119_105
*793 FILLER_119_1057
*794 FILLER_119_1063
*795 FILLER_119_1065
*796 FILLER_119_1077
*797 FILLER_119_1089
*798 FILLER_119_1101
*799 FILLER_119_111
*800 FILLER_119_1113
*801 FILLER_119_1119
*802 FILLER_119_1121
*803 FILLER_119_113
*804 FILLER_119_1133
*805 FILLER_119_1145
*806 FILLER_119_1157
*807 FILLER_119_1169
*808 FILLER_119_1175
*809 FILLER_119_1177
*810 FILLER_119_1189
*811 FILLER_119_125
*812 FILLER_119_137
*813 FILLER_119_149
*814 FILLER_119_15
*815 FILLER_119_161
*816 FILLER_119_167
*817 FILLER_119_169
*818 FILLER_119_181
*819 FILLER_119_193
*820 FILLER_119_205
*821 FILLER_119_217
*822 FILLER_119_223
*823 FILLER_119_225
*824 FILLER_119_237
*825 FILLER_119_249
*826 FILLER_119_261
*827 FILLER_119_27
*828 FILLER_119_273
*829 FILLER_119_279
*830 FILLER_119_281
*831 FILLER_119_293
*832 FILLER_119_3
*833 FILLER_119_305
*834 FILLER_119_317
*835 FILLER_119_329
*836 FILLER_119_335
*837 FILLER_119_337
*838 FILLER_119_349
*839 FILLER_119_361
*840 FILLER_119_373
*841 FILLER_119_385
*842 FILLER_119_39
*843 FILLER_119_391
*844 FILLER_119_393
*845 FILLER_119_405
*846 FILLER_119_417
*847 FILLER_119_429
*848 FILLER_119_441
*849 FILLER_119_447
*850 FILLER_119_449
*851 FILLER_119_479
*852 FILLER_119_503
*853 FILLER_119_51
*854 FILLER_119_527
*855 FILLER_119_55
*856 FILLER_119_550
*857 FILLER_119_558
*858 FILLER_119_561
*859 FILLER_119_569
*860 FILLER_119_57
*861 FILLER_119_610
*862 FILLER_119_657
*863 FILLER_119_669
*864 FILLER_119_673
*865 FILLER_119_679
*866 FILLER_119_69
*867 FILLER_119_700
*868 FILLER_119_721
*869 FILLER_119_727
*870 FILLER_119_769
*871 FILLER_119_781
*872 FILLER_119_785
*873 FILLER_119_793
*874 FILLER_119_81
*875 FILLER_119_816
*876 FILLER_119_828
*877 FILLER_119_841
*878 FILLER_119_853
*879 FILLER_119_865
*880 FILLER_119_877
*881 FILLER_119_889
*882 FILLER_119_895
*883 FILLER_119_897
*884 FILLER_119_909
*885 FILLER_119_921
*886 FILLER_119_93
*887 FILLER_119_933
*888 FILLER_119_945
*889 FILLER_119_951
*890 FILLER_119_953
*891 FILLER_119_965
*892 FILLER_119_977
*893 FILLER_119_989
*894 FILLER_11_1122
*895 FILLER_11_1134
*896 FILLER_11_1146
*897 FILLER_11_1158
*898 FILLER_11_1170
*899 FILLER_11_1174
*900 FILLER_11_1176
*901 FILLER_11_1188
*902 FILLER_11_15
*903 FILLER_11_27
*904 FILLER_11_3
*905 FILLER_11_39
*906 FILLER_11_51
*907 FILLER_11_55
*908 FILLER_11_57
*909 FILLER_11_69
*910 FILLER_120_1005
*911 FILLER_120_1017
*912 FILLER_120_1029
*913 FILLER_120_1035
*914 FILLER_120_1037
*915 FILLER_120_1049
*916 FILLER_120_1061
*917 FILLER_120_1073
*918 FILLER_120_1085
*919 FILLER_120_109
*920 FILLER_120_1091
*921 FILLER_120_1093
*922 FILLER_120_1105
*923 FILLER_120_1117
*924 FILLER_120_1129
*925 FILLER_120_1141
*926 FILLER_120_1147
*927 FILLER_120_1149
*928 FILLER_120_1161
*929 FILLER_120_1173
*930 FILLER_120_1185
*931 FILLER_120_1189
*932 FILLER_120_121
*933 FILLER_120_133
*934 FILLER_120_139
*935 FILLER_120_141
*936 FILLER_120_15
*937 FILLER_120_153
*938 FILLER_120_165
*939 FILLER_120_177
*940 FILLER_120_189
*941 FILLER_120_195
*942 FILLER_120_197
*943 FILLER_120_209
*944 FILLER_120_221
*945 FILLER_120_233
*946 FILLER_120_245
*947 FILLER_120_251
*948 FILLER_120_253
*949 FILLER_120_265
*950 FILLER_120_27
*951 FILLER_120_277
*952 FILLER_120_289
*953 FILLER_120_29
*954 FILLER_120_3
*955 FILLER_120_301
*956 FILLER_120_307
*957 FILLER_120_309
*958 FILLER_120_321
*959 FILLER_120_333
*960 FILLER_120_345
*961 FILLER_120_357
*962 FILLER_120_363
*963 FILLER_120_365
*964 FILLER_120_377
*965 FILLER_120_389
*966 FILLER_120_401
*967 FILLER_120_41
*968 FILLER_120_413
*969 FILLER_120_419
*970 FILLER_120_421
*971 FILLER_120_433
*972 FILLER_120_445
*973 FILLER_120_457
*974 FILLER_120_469
*975 FILLER_120_475
*976 FILLER_120_477
*977 FILLER_120_489
*978 FILLER_120_501
*979 FILLER_120_513
*980 FILLER_120_525
*981 FILLER_120_53
*982 FILLER_120_531
*983 FILLER_120_533
*984 FILLER_120_545
*985 FILLER_120_557
*986 FILLER_120_569
*987 FILLER_120_581
*988 FILLER_120_587
*989 FILLER_120_589
*990 FILLER_120_601
*991 FILLER_120_613
*992 FILLER_120_625
*993 FILLER_120_637
*994 FILLER_120_643
*995 FILLER_120_645
*996 FILLER_120_65
*997 FILLER_120_657
*998 FILLER_120_669
*999 FILLER_120_681
*1000 FILLER_120_693
*1001 FILLER_120_699
*1002 FILLER_120_701
*1003 FILLER_120_713
*1004 FILLER_120_725
*1005 FILLER_120_737
*1006 FILLER_120_749
*1007 FILLER_120_755
*1008 FILLER_120_757
*1009 FILLER_120_769
*1010 FILLER_120_77
*1011 FILLER_120_781
*1012 FILLER_120_793
*1013 FILLER_120_805
*1014 FILLER_120_811
*1015 FILLER_120_813
*1016 FILLER_120_825
*1017 FILLER_120_83
*1018 FILLER_120_837
*1019 FILLER_120_849
*1020 FILLER_120_85
*1021 FILLER_120_861
*1022 FILLER_120_867
*1023 FILLER_120_869
*1024 FILLER_120_881
*1025 FILLER_120_893
*1026 FILLER_120_905
*1027 FILLER_120_917
*1028 FILLER_120_923
*1029 FILLER_120_925
*1030 FILLER_120_937
*1031 FILLER_120_949
*1032 FILLER_120_961
*1033 FILLER_120_97
*1034 FILLER_120_973
*1035 FILLER_120_979
*1036 FILLER_120_981
*1037 FILLER_120_993
*1038 FILLER_121_1001
*1039 FILLER_121_1007
*1040 FILLER_121_1009
*1041 FILLER_121_1021
*1042 FILLER_121_1033
*1043 FILLER_121_1045
*1044 FILLER_121_105
*1045 FILLER_121_1057
*1046 FILLER_121_1063
*1047 FILLER_121_1065
*1048 FILLER_121_1077
*1049 FILLER_121_1089
*1050 FILLER_121_1101
*1051 FILLER_121_111
*1052 FILLER_121_1113
*1053 FILLER_121_1119
*1054 FILLER_121_1121
*1055 FILLER_121_113
*1056 FILLER_121_1133
*1057 FILLER_121_1145
*1058 FILLER_121_1157
*1059 FILLER_121_1169
*1060 FILLER_121_1175
*1061 FILLER_121_1177
*1062 FILLER_121_1189
*1063 FILLER_121_125
*1064 FILLER_121_137
*1065 FILLER_121_149
*1066 FILLER_121_15
*1067 FILLER_121_161
*1068 FILLER_121_167
*1069 FILLER_121_169
*1070 FILLER_121_181
*1071 FILLER_121_193
*1072 FILLER_121_205
*1073 FILLER_121_217
*1074 FILLER_121_223
*1075 FILLER_121_225
*1076 FILLER_121_237
*1077 FILLER_121_249
*1078 FILLER_121_261
*1079 FILLER_121_27
*1080 FILLER_121_273
*1081 FILLER_121_279
*1082 FILLER_121_281
*1083 FILLER_121_293
*1084 FILLER_121_3
*1085 FILLER_121_305
*1086 FILLER_121_317
*1087 FILLER_121_329
*1088 FILLER_121_335
*1089 FILLER_121_337
*1090 FILLER_121_349
*1091 FILLER_121_361
*1092 FILLER_121_373
*1093 FILLER_121_385
*1094 FILLER_121_39
*1095 FILLER_121_391
*1096 FILLER_121_393
*1097 FILLER_121_405
*1098 FILLER_121_417
*1099 FILLER_121_429
*1100 FILLER_121_441
*1101 FILLER_121_447
*1102 FILLER_121_449
*1103 FILLER_121_461
*1104 FILLER_121_473
*1105 FILLER_121_485
*1106 FILLER_121_497
*1107 FILLER_121_503
*1108 FILLER_121_505
*1109 FILLER_121_51
*1110 FILLER_121_517
*1111 FILLER_121_529
*1112 FILLER_121_541
*1113 FILLER_121_55
*1114 FILLER_121_553
*1115 FILLER_121_559
*1116 FILLER_121_561
*1117 FILLER_121_57
*1118 FILLER_121_573
*1119 FILLER_121_585
*1120 FILLER_121_597
*1121 FILLER_121_609
*1122 FILLER_121_615
*1123 FILLER_121_617
*1124 FILLER_121_629
*1125 FILLER_121_641
*1126 FILLER_121_653
*1127 FILLER_121_665
*1128 FILLER_121_671
*1129 FILLER_121_673
*1130 FILLER_121_685
*1131 FILLER_121_69
*1132 FILLER_121_697
*1133 FILLER_121_709
*1134 FILLER_121_721
*1135 FILLER_121_727
*1136 FILLER_121_729
*1137 FILLER_121_741
*1138 FILLER_121_753
*1139 FILLER_121_765
*1140 FILLER_121_777
*1141 FILLER_121_783
*1142 FILLER_121_785
*1143 FILLER_121_797
*1144 FILLER_121_809
*1145 FILLER_121_81
*1146 FILLER_121_821
*1147 FILLER_121_833
*1148 FILLER_121_839
*1149 FILLER_121_841
*1150 FILLER_121_853
*1151 FILLER_121_865
*1152 FILLER_121_877
*1153 FILLER_121_889
*1154 FILLER_121_895
*1155 FILLER_121_897
*1156 FILLER_121_909
*1157 FILLER_121_921
*1158 FILLER_121_93
*1159 FILLER_121_933
*1160 FILLER_121_945
*1161 FILLER_121_951
*1162 FILLER_121_953
*1163 FILLER_121_965
*1164 FILLER_121_977
*1165 FILLER_121_989
*1166 FILLER_122_1005
*1167 FILLER_122_1017
*1168 FILLER_122_1029
*1169 FILLER_122_1035
*1170 FILLER_122_1037
*1171 FILLER_122_1049
*1172 FILLER_122_1061
*1173 FILLER_122_1073
*1174 FILLER_122_1085
*1175 FILLER_122_109
*1176 FILLER_122_1091
*1177 FILLER_122_1093
*1178 FILLER_122_1105
*1179 FILLER_122_1117
*1180 FILLER_122_1129
*1181 FILLER_122_1141
*1182 FILLER_122_1147
*1183 FILLER_122_1149
*1184 FILLER_122_1161
*1185 FILLER_122_1173
*1186 FILLER_122_1185
*1187 FILLER_122_1189
*1188 FILLER_122_121
*1189 FILLER_122_133
*1190 FILLER_122_139
*1191 FILLER_122_141
*1192 FILLER_122_15
*1193 FILLER_122_153
*1194 FILLER_122_165
*1195 FILLER_122_177
*1196 FILLER_122_189
*1197 FILLER_122_195
*1198 FILLER_122_197
*1199 FILLER_122_209
*1200 FILLER_122_221
*1201 FILLER_122_233
*1202 FILLER_122_245
*1203 FILLER_122_251
*1204 FILLER_122_253
*1205 FILLER_122_265
*1206 FILLER_122_27
*1207 FILLER_122_277
*1208 FILLER_122_289
*1209 FILLER_122_29
*1210 FILLER_122_3
*1211 FILLER_122_301
*1212 FILLER_122_307
*1213 FILLER_122_309
*1214 FILLER_122_321
*1215 FILLER_122_333
*1216 FILLER_122_345
*1217 FILLER_122_357
*1218 FILLER_122_363
*1219 FILLER_122_365
*1220 FILLER_122_377
*1221 FILLER_122_389
*1222 FILLER_122_401
*1223 FILLER_122_41
*1224 FILLER_122_413
*1225 FILLER_122_419
*1226 FILLER_122_421
*1227 FILLER_122_433
*1228 FILLER_122_445
*1229 FILLER_122_457
*1230 FILLER_122_469
*1231 FILLER_122_475
*1232 FILLER_122_477
*1233 FILLER_122_489
*1234 FILLER_122_501
*1235 FILLER_122_513
*1236 FILLER_122_525
*1237 FILLER_122_53
*1238 FILLER_122_531
*1239 FILLER_122_533
*1240 FILLER_122_545
*1241 FILLER_122_557
*1242 FILLER_122_569
*1243 FILLER_122_581
*1244 FILLER_122_587
*1245 FILLER_122_589
*1246 FILLER_122_601
*1247 FILLER_122_613
*1248 FILLER_122_625
*1249 FILLER_122_637
*1250 FILLER_122_643
*1251 FILLER_122_645
*1252 FILLER_122_65
*1253 FILLER_122_657
*1254 FILLER_122_669
*1255 FILLER_122_681
*1256 FILLER_122_693
*1257 FILLER_122_699
*1258 FILLER_122_701
*1259 FILLER_122_713
*1260 FILLER_122_725
*1261 FILLER_122_737
*1262 FILLER_122_749
*1263 FILLER_122_755
*1264 FILLER_122_757
*1265 FILLER_122_769
*1266 FILLER_122_77
*1267 FILLER_122_781
*1268 FILLER_122_793
*1269 FILLER_122_805
*1270 FILLER_122_811
*1271 FILLER_122_813
*1272 FILLER_122_825
*1273 FILLER_122_83
*1274 FILLER_122_837
*1275 FILLER_122_849
*1276 FILLER_122_85
*1277 FILLER_122_861
*1278 FILLER_122_867
*1279 FILLER_122_869
*1280 FILLER_122_881
*1281 FILLER_122_893
*1282 FILLER_122_905
*1283 FILLER_122_917
*1284 FILLER_122_923
*1285 FILLER_122_925
*1286 FILLER_122_937
*1287 FILLER_122_949
*1288 FILLER_122_961
*1289 FILLER_122_97
*1290 FILLER_122_973
*1291 FILLER_122_979
*1292 FILLER_122_981
*1293 FILLER_122_993
*1294 FILLER_123_1001
*1295 FILLER_123_1007
*1296 FILLER_123_1009
*1297 FILLER_123_1021
*1298 FILLER_123_1033
*1299 FILLER_123_1045
*1300 FILLER_123_105
*1301 FILLER_123_1057
*1302 FILLER_123_1063
*1303 FILLER_123_1065
*1304 FILLER_123_1077
*1305 FILLER_123_1089
*1306 FILLER_123_1101
*1307 FILLER_123_111
*1308 FILLER_123_1113
*1309 FILLER_123_1119
*1310 FILLER_123_1121
*1311 FILLER_123_113
*1312 FILLER_123_1133
*1313 FILLER_123_1145
*1314 FILLER_123_1157
*1315 FILLER_123_1169
*1316 FILLER_123_1175
*1317 FILLER_123_1177
*1318 FILLER_123_1189
*1319 FILLER_123_125
*1320 FILLER_123_137
*1321 FILLER_123_149
*1322 FILLER_123_15
*1323 FILLER_123_161
*1324 FILLER_123_167
*1325 FILLER_123_169
*1326 FILLER_123_181
*1327 FILLER_123_193
*1328 FILLER_123_205
*1329 FILLER_123_217
*1330 FILLER_123_223
*1331 FILLER_123_225
*1332 FILLER_123_237
*1333 FILLER_123_249
*1334 FILLER_123_261
*1335 FILLER_123_27
*1336 FILLER_123_273
*1337 FILLER_123_279
*1338 FILLER_123_281
*1339 FILLER_123_293
*1340 FILLER_123_3
*1341 FILLER_123_305
*1342 FILLER_123_317
*1343 FILLER_123_329
*1344 FILLER_123_335
*1345 FILLER_123_337
*1346 FILLER_123_349
*1347 FILLER_123_361
*1348 FILLER_123_373
*1349 FILLER_123_385
*1350 FILLER_123_39
*1351 FILLER_123_391
*1352 FILLER_123_393
*1353 FILLER_123_405
*1354 FILLER_123_417
*1355 FILLER_123_429
*1356 FILLER_123_441
*1357 FILLER_123_447
*1358 FILLER_123_449
*1359 FILLER_123_461
*1360 FILLER_123_473
*1361 FILLER_123_485
*1362 FILLER_123_497
*1363 FILLER_123_503
*1364 FILLER_123_505
*1365 FILLER_123_51
*1366 FILLER_123_517
*1367 FILLER_123_529
*1368 FILLER_123_541
*1369 FILLER_123_55
*1370 FILLER_123_553
*1371 FILLER_123_559
*1372 FILLER_123_561
*1373 FILLER_123_57
*1374 FILLER_123_573
*1375 FILLER_123_585
*1376 FILLER_123_597
*1377 FILLER_123_609
*1378 FILLER_123_615
*1379 FILLER_123_617
*1380 FILLER_123_629
*1381 FILLER_123_641
*1382 FILLER_123_653
*1383 FILLER_123_665
*1384 FILLER_123_671
*1385 FILLER_123_673
*1386 FILLER_123_685
*1387 FILLER_123_69
*1388 FILLER_123_697
*1389 FILLER_123_709
*1390 FILLER_123_721
*1391 FILLER_123_727
*1392 FILLER_123_729
*1393 FILLER_123_741
*1394 FILLER_123_753
*1395 FILLER_123_765
*1396 FILLER_123_777
*1397 FILLER_123_783
*1398 FILLER_123_785
*1399 FILLER_123_797
*1400 FILLER_123_809
*1401 FILLER_123_81
*1402 FILLER_123_821
*1403 FILLER_123_833
*1404 FILLER_123_839
*1405 FILLER_123_841
*1406 FILLER_123_853
*1407 FILLER_123_865
*1408 FILLER_123_877
*1409 FILLER_123_889
*1410 FILLER_123_895
*1411 FILLER_123_897
*1412 FILLER_123_909
*1413 FILLER_123_921
*1414 FILLER_123_93
*1415 FILLER_123_933
*1416 FILLER_123_945
*1417 FILLER_123_951
*1418 FILLER_123_953
*1419 FILLER_123_965
*1420 FILLER_123_977
*1421 FILLER_123_989
*1422 FILLER_124_1005
*1423 FILLER_124_1017
*1424 FILLER_124_1029
*1425 FILLER_124_1035
*1426 FILLER_124_1037
*1427 FILLER_124_1049
*1428 FILLER_124_1061
*1429 FILLER_124_1073
*1430 FILLER_124_1085
*1431 FILLER_124_109
*1432 FILLER_124_1091
*1433 FILLER_124_1093
*1434 FILLER_124_1105
*1435 FILLER_124_1117
*1436 FILLER_124_1129
*1437 FILLER_124_1141
*1438 FILLER_124_1147
*1439 FILLER_124_1149
*1440 FILLER_124_1161
*1441 FILLER_124_1173
*1442 FILLER_124_1185
*1443 FILLER_124_1189
*1444 FILLER_124_121
*1445 FILLER_124_133
*1446 FILLER_124_139
*1447 FILLER_124_141
*1448 FILLER_124_15
*1449 FILLER_124_153
*1450 FILLER_124_165
*1451 FILLER_124_177
*1452 FILLER_124_189
*1453 FILLER_124_195
*1454 FILLER_124_197
*1455 FILLER_124_209
*1456 FILLER_124_221
*1457 FILLER_124_233
*1458 FILLER_124_245
*1459 FILLER_124_251
*1460 FILLER_124_253
*1461 FILLER_124_265
*1462 FILLER_124_27
*1463 FILLER_124_277
*1464 FILLER_124_289
*1465 FILLER_124_29
*1466 FILLER_124_3
*1467 FILLER_124_301
*1468 FILLER_124_307
*1469 FILLER_124_309
*1470 FILLER_124_321
*1471 FILLER_124_333
*1472 FILLER_124_345
*1473 FILLER_124_357
*1474 FILLER_124_363
*1475 FILLER_124_365
*1476 FILLER_124_377
*1477 FILLER_124_389
*1478 FILLER_124_401
*1479 FILLER_124_41
*1480 FILLER_124_413
*1481 FILLER_124_419
*1482 FILLER_124_421
*1483 FILLER_124_433
*1484 FILLER_124_445
*1485 FILLER_124_457
*1486 FILLER_124_469
*1487 FILLER_124_475
*1488 FILLER_124_477
*1489 FILLER_124_489
*1490 FILLER_124_501
*1491 FILLER_124_513
*1492 FILLER_124_525
*1493 FILLER_124_53
*1494 FILLER_124_531
*1495 FILLER_124_533
*1496 FILLER_124_545
*1497 FILLER_124_557
*1498 FILLER_124_569
*1499 FILLER_124_581
*1500 FILLER_124_587
*1501 FILLER_124_589
*1502 FILLER_124_601
*1503 FILLER_124_613
*1504 FILLER_124_625
*1505 FILLER_124_637
*1506 FILLER_124_643
*1507 FILLER_124_645
*1508 FILLER_124_65
*1509 FILLER_124_657
*1510 FILLER_124_669
*1511 FILLER_124_681
*1512 FILLER_124_693
*1513 FILLER_124_699
*1514 FILLER_124_701