*SPEF "ieee 1481-1999"
*DESIGN "counter"
*DATE "07:53:15 Tuesday March 04, 2025"
*VENDOR "The OpenROAD Project"
*PROGRAM "OpenROAD"
*VERSION "edf00dff99f6c40d67a30c0e22a8191c5d2ed9d6"
*DESIGN_FLOW "NAME_SCOPE LOCAL" "PIN_CAP NONE"
*DIVIDER /
*DELIMITER :
*BUS_DELIMITER []
*T_UNIT 1 NS
*C_UNIT 1 PF
*R_UNIT 1 OHM
*L_UNIT 1 HENRY

*NAME_MAP
*1 addr0[0]
*2 addr0[1]
*3 addr0[2]
*4 addr0[3]
*5 addr0[4]
*6 addr0[5]
*7 addr0[6]
*8 addr0[7]
*9 clk
*10 csb0
*11 din0[0]
*12 din0[10]
*13 din0[11]
*14 din0[12]
*15 din0[13]
*16 din0[14]
*17 din0[15]
*18 din0[1]
*19 din0[2]
*20 din0[3]
*21 din0[4]
*22 din0[5]
*23 din0[6]
*24 din0[7]
*25 din0[8]
*26 din0[9]
*27 rst
*28 sine_out[0]
*29 sine_out[10]
*30 sine_out[11]
*31 sine_out[12]
*32 sine_out[13]
*33 sine_out[14]
*34 sine_out[15]
*35 sine_out[1]
*36 sine_out[2]
*37 sine_out[3]
*38 sine_out[4]
*39 sine_out[5]
*40 sine_out[6]
*41 sine_out[7]
*42 sine_out[8]
*43 sine_out[9]
*46 _000_
*47 _001_
*48 _002_
*49 _003_
*50 _004_
*51 _005_
*52 _006_
*53 _007_
*54 _008_
*55 _009_
*56 _010_
*57 _011_
*58 _012_
*59 _013_
*60 _014_
*61 _015_
*62 _016_
*63 _017_
*64 _018_
*65 _019_
*66 _020_
*67 _021_
*68 _022_
*69 _023_
*70 _024_
*71 _025_
*72 _026_
*73 _027_
*74 _028_
*75 _029_
*76 _030_
*77 _031_
*78 _032_
*79 _033_
*80 _034_
*81 _035_
*82 _036_
*83 _037_
*84 _038_
*85 clknet_0_clk
*86 clknet_1_0__leaf_clk
*87 clknet_1_1__leaf_clk
*88 net1
*89 net10
*90 net11
*91 net12
*92 net13
*93 net14
*94 net15
*95 net16
*96 net17
*97 net18
*98 net19
*99 net2
*100 net20
*101 net21
*102 net3
*103 net4
*104 net5
*105 net6
*106 net7
*107 net8
*108 net9
*109 sine_out_temp\[0\]
*110 sine_out_temp\[10\]
*111 sine_out_temp\[11\]
*112 sine_out_temp\[12\]
*113 sine_out_temp\[13\]
*114 sine_out_temp\[14\]
*115 sine_out_temp\[15\]
*116 sine_out_temp\[1\]
*117 sine_out_temp\[2\]
*118 sine_out_temp\[3\]
*119 sine_out_temp\[4\]
*120 sine_out_temp\[5\]
*121 sine_out_temp\[6\]
*122 sine_out_temp\[7\]
*123 sine_out_temp\[8\]
*124 sine_out_temp\[9\]
*125 tcout\[0\]
*126 tcout\[1\]
*127 tcout\[2\]
*128 tcout\[3\]
*129 tcout\[4\]
*130 tcout\[5\]
*131 tcout\[6\]
*132 tcout\[7\]
*133 ANTENNA_1
*134 ANTENNA_2
*135 ANTENNA_3
*136 ANTENNA_4
*137 ANTENNA__040__A
*138 ANTENNA__042__A
*139 ANTENNA__042__B
*140 ANTENNA__043__A
*141 ANTENNA__043__B
*142 ANTENNA__043__C
*143 ANTENNA__043__X
*144 ANTENNA__044__A1
*145 ANTENNA__044__A2
*146 ANTENNA__044__B1
*147 ANTENNA__045__A
*148 ANTENNA__046__B
*149 ANTENNA__047__B
*150 ANTENNA__048__C
*151 ANTENNA__050__C
*152 ANTENNA__051__A1_N
*153 ANTENNA__051__B2
*154 ANTENNA__052__A
*155 ANTENNA__052__B
*156 ANTENNA__053__A1
*157 ANTENNA__053__B1
*158 ANTENNA__055__A
*159 ANTENNA__065__A
*160 ANTENNA__065__Y
*161 ANTENNA__066__A
*162 ANTENNA__067__A
*163 ANTENNA__068__A
*164 ANTENNA__069__A
*165 ANTENNA__070__A
*166 ANTENNA__071__A
*167 ANTENNA__072__A
*168 ANTENNA__079__CLK
*169 ANTENNA__080__CLK
*170 ANTENNA__081__CLK
*171 ANTENNA__082__CLK
*172 ANTENNA__083__CLK
*173 ANTENNA__084__CLK
*174 ANTENNA__085__CLK
*175 ANTENNA__086__CLK
*176 ANTENNA__087__CLK
*177 ANTENNA__088__CLK
*178 ANTENNA__089__CLK
*179 ANTENNA__089__Q
*180 ANTENNA__089__RESET_B
*181 ANTENNA__090__CLK
*182 ANTENNA__090__Q
*183 ANTENNA__091__CLK
*184 ANTENNA__091__Q
*185 ANTENNA__092__CLK
*186 ANTENNA__093__CLK
*187 ANTENNA__094__CLK
*188 ANTENNA__094__Q
*189 ANTENNA__095__CLK
*190 ANTENNA__095__Q
*191 ANTENNA__096__CLK
*192 ANTENNA__096__Q
*193 ANTENNA__097__CLK
*194 ANTENNA__098__CLK
*195 ANTENNA__099__CLK
*196 ANTENNA__100__CLK
*197 ANTENNA__101__CLK
*198 ANTENNA__102__CLK
*199 ANTENNA_clkbuf_0_clk_A
*200 ANTENNA_clkbuf_0_clk_X
*201 ANTENNA_clkbuf_1_0__f_clk_A
*202 ANTENNA_clkbuf_1_0__f_clk_X
*203 ANTENNA_clkbuf_1_1__f_clk_A
*204 ANTENNA_clkbuf_1_1__f_clk_X
*205 ANTENNA_clkload0_A
*206 ANTENNA_fanout18_A
*207 ANTENNA_fanout19_A
*208 ANTENNA_fanout20_X
*209 ANTENNA_input1_A
*210 ANTENNA_mem_i_addr0\[0\]
*211 ANTENNA_mem_i_addr0\[1\]
*212 ANTENNA_mem_i_addr0\[2\]
*213 ANTENNA_mem_i_addr0\[3\]
*214 ANTENNA_mem_i_addr0\[4\]
*215 ANTENNA_mem_i_addr0\[5\]
*216 ANTENNA_mem_i_addr0\[6\]
*217 ANTENNA_mem_i_addr0\[7\]
*218 ANTENNA_mem_i_addr1\[0\]
*219 ANTENNA_mem_i_addr1\[1\]
*220 ANTENNA_mem_i_addr1\[2\]
*221 ANTENNA_mem_i_addr1\[5\]
*222 ANTENNA_mem_i_addr1\[6\]
*223 ANTENNA_mem_i_addr1\[7\]
*224 ANTENNA_mem_i_clk0
*225 ANTENNA_mem_i_clk1
*226 ANTENNA_mem_i_csb0
*227 ANTENNA_mem_i_din0\[0\]
*228 ANTENNA_mem_i_din0\[10\]
*229 ANTENNA_mem_i_din0\[11\]
*230 ANTENNA_mem_i_din0\[12\]
*231 ANTENNA_mem_i_din0\[13\]
*232 ANTENNA_mem_i_din0\[14\]
*233 ANTENNA_mem_i_din0\[15\]
*234 ANTENNA_mem_i_din0\[1\]
*235 ANTENNA_mem_i_din0\[2\]
*236 ANTENNA_mem_i_din0\[3\]
*237 ANTENNA_mem_i_din0\[4\]
*238 ANTENNA_mem_i_din0\[5\]
*239 ANTENNA_mem_i_din0\[6\]
*240 ANTENNA_mem_i_din0\[7\]
*241 ANTENNA_mem_i_din0\[8\]
*242 ANTENNA_mem_i_din0\[9\]
*243 FILLER_0_1005
*244 FILLER_0_1009
*245 FILLER_0_1021
*246 FILLER_0_1033
*247 FILLER_0_1037
*248 FILLER_0_1049
*249 FILLER_0_1061
*250 FILLER_0_1065
*251 FILLER_0_1077
*252 FILLER_0_1089
*253 FILLER_0_109
*254 FILLER_0_1093
*255 FILLER_0_1105
*256 FILLER_0_1117
*257 FILLER_0_1121
*258 FILLER_0_113
*259 FILLER_0_1133
*260 FILLER_0_1145
*261 FILLER_0_1149
*262 FILLER_0_1161
*263 FILLER_0_1173
*264 FILLER_0_1177
*265 FILLER_0_1189
*266 FILLER_0_125
*267 FILLER_0_137
*268 FILLER_0_141
*269 FILLER_0_15
*270 FILLER_0_153
*271 FILLER_0_165
*272 FILLER_0_169
*273 FILLER_0_181
*274 FILLER_0_193
*275 FILLER_0_197
*276 FILLER_0_209
*277 FILLER_0_221
*278 FILLER_0_225
*279 FILLER_0_237
*280 FILLER_0_249
*281 FILLER_0_253
*282 FILLER_0_265
*283 FILLER_0_27
*284 FILLER_0_277
*285 FILLER_0_281
*286 FILLER_0_29
*287 FILLER_0_293
*288 FILLER_0_3
*289 FILLER_0_305
*290 FILLER_0_309
*291 FILLER_0_321
*292 FILLER_0_333
*293 FILLER_0_337
*294 FILLER_0_349
*295 FILLER_0_361
*296 FILLER_0_365
*297 FILLER_0_377
*298 FILLER_0_389
*299 FILLER_0_393
*300 FILLER_0_405
*301 FILLER_0_41
*302 FILLER_0_417
*303 FILLER_0_421
*304 FILLER_0_433
*305 FILLER_0_445
*306 FILLER_0_449
*307 FILLER_0_461
*308 FILLER_0_473
*309 FILLER_0_477
*310 FILLER_0_489
*311 FILLER_0_501
*312 FILLER_0_505
*313 FILLER_0_517
*314 FILLER_0_529
*315 FILLER_0_53
*316 FILLER_0_533
*317 FILLER_0_545
*318 FILLER_0_557
*319 FILLER_0_561
*320 FILLER_0_57
*321 FILLER_0_573
*322 FILLER_0_585
*323 FILLER_0_589
*324 FILLER_0_601
*325 FILLER_0_613
*326 FILLER_0_617
*327 FILLER_0_629
*328 FILLER_0_641
*329 FILLER_0_645
*330 FILLER_0_657
*331 FILLER_0_669
*332 FILLER_0_673
*333 FILLER_0_685
*334 FILLER_0_69
*335 FILLER_0_697
*336 FILLER_0_701
*337 FILLER_0_713
*338 FILLER_0_725
*339 FILLER_0_729
*340 FILLER_0_741
*341 FILLER_0_753
*342 FILLER_0_757
*343 FILLER_0_769
*344 FILLER_0_781
*345 FILLER_0_785
*346 FILLER_0_797
*347 FILLER_0_809
*348 FILLER_0_81
*349 FILLER_0_813
*350 FILLER_0_825
*351 FILLER_0_837
*352 FILLER_0_841
*353 FILLER_0_85
*354 FILLER_0_853
*355 FILLER_0_865
*356 FILLER_0_869
*357 FILLER_0_881
*358 FILLER_0_893
*359 FILLER_0_897
*360 FILLER_0_909
*361 FILLER_0_921
*362 FILLER_0_925
*363 FILLER_0_937
*364 FILLER_0_949
*365 FILLER_0_953
*366 FILLER_0_965
*367 FILLER_0_97
*368 FILLER_0_977
*369 FILLER_0_981
*370 FILLER_0_993
*371 FILLER_100_1124
*372 FILLER_100_1136
*373 FILLER_100_1144
*374 FILLER_100_1148
*375 FILLER_100_1160
*376 FILLER_100_1172
*377 FILLER_100_1184
*378 FILLER_100_15
*379 FILLER_100_27
*380 FILLER_100_29
*381 FILLER_100_3
*382 FILLER_100_41
*383 FILLER_100_53
*384 FILLER_100_65
*385 FILLER_101_1149
*386 FILLER_101_1161
*387 FILLER_101_1173
*388 FILLER_101_1176
*389 FILLER_101_1188
*390 FILLER_101_15
*391 FILLER_101_27
*392 FILLER_101_3
*393 FILLER_101_39
*394 FILLER_101_51
*395 FILLER_101_55
*396 FILLER_101_57
*397 FILLER_101_69
*398 FILLER_102_1122
*399 FILLER_102_1134
*400 FILLER_102_1146
*401 FILLER_102_1148
*402 FILLER_102_1160
*403 FILLER_102_1172
*404 FILLER_102_1184
*405 FILLER_102_15
*406 FILLER_102_27
*407 FILLER_102_29
*408 FILLER_102_3
*409 FILLER_102_41
*410 FILLER_102_53
*411 FILLER_102_65
*412 FILLER_103_1122
*413 FILLER_103_1134
*414 FILLER_103_1146
*415 FILLER_103_1158
*416 FILLER_103_1170
*417 FILLER_103_1174
*418 FILLER_103_1176
*419 FILLER_103_1188
*420 FILLER_103_15
*421 FILLER_103_27
*422 FILLER_103_3
*423 FILLER_103_39
*424 FILLER_103_51
*425 FILLER_103_55
*426 FILLER_103_57
*427 FILLER_103_69
*428 FILLER_104_1122
*429 FILLER_104_1134
*430 FILLER_104_1146
*431 FILLER_104_1148
*432 FILLER_104_1160
*433 FILLER_104_1172
*434 FILLER_104_1184
*435 FILLER_104_15
*436 FILLER_104_27
*437 FILLER_104_29
*438 FILLER_104_3
*439 FILLER_104_41
*440 FILLER_104_53
*441 FILLER_104_65
*442 FILLER_105_1122
*443 FILLER_105_1134
*444 FILLER_105_1146
*445 FILLER_105_1158
*446 FILLER_105_1170
*447 FILLER_105_1174
*448 FILLER_105_1176
*449 FILLER_105_1188
*450 FILLER_105_15
*451 FILLER_105_27
*452 FILLER_105_3
*453 FILLER_105_39
*454 FILLER_105_51
*455 FILLER_105_55
*456 FILLER_105_57
*457 FILLER_105_69
*458 FILLER_106_1125
*459 FILLER_106_1137
*460 FILLER_106_1145
*461 FILLER_106_1148
*462 FILLER_106_1160
*463 FILLER_106_1172
*464 FILLER_106_1184
*465 FILLER_106_15
*466 FILLER_106_27
*467 FILLER_106_29
*468 FILLER_106_3
*469 FILLER_106_41
*470 FILLER_106_53
*471 FILLER_106_65
*472 FILLER_107_1122
*473 FILLER_107_1134
*474 FILLER_107_1146
*475 FILLER_107_1158
*476 FILLER_107_1170
*477 FILLER_107_1174
*478 FILLER_107_1176
*479 FILLER_107_1188
*480 FILLER_107_15
*481 FILLER_107_27
*482 FILLER_107_3
*483 FILLER_107_39
*484 FILLER_107_51
*485 FILLER_107_55
*486 FILLER_107_57
*487 FILLER_107_69
*488 FILLER_108_1122
*489 FILLER_108_1134
*490 FILLER_108_1146
*491 FILLER_108_1148
*492 FILLER_108_1160
*493 FILLER_108_1172
*494 FILLER_108_1184
*495 FILLER_108_15
*496 FILLER_108_27
*497 FILLER_108_29
*498 FILLER_108_3
*499 FILLER_108_41
*500 FILLER_108_53
*501 FILLER_108_65
*502 FILLER_109_1122
*503 FILLER_109_1134
*504 FILLER_109_1146
*505 FILLER_109_1158
*506 FILLER_109_1170
*507 FILLER_109_1174
*508 FILLER_109_1176
*509 FILLER_109_1188
*510 FILLER_109_15
*511 FILLER_109_27
*512 FILLER_109_3
*513 FILLER_109_39
*514 FILLER_109_51
*515 FILLER_109_55
*516 FILLER_109_57
*517 FILLER_109_69
*518 FILLER_10_1122
*519 FILLER_10_1134
*520 FILLER_10_1146
*521 FILLER_10_1148
*522 FILLER_10_1160
*523 FILLER_10_1172
*524 FILLER_10_1184
*525 FILLER_10_15
*526 FILLER_10_27
*527 FILLER_10_29
*528 FILLER_10_3
*529 FILLER_10_41
*530 FILLER_10_53
*531 FILLER_10_65
*532 FILLER_110_1122
*533 FILLER_110_1134
*534 FILLER_110_1146
*535 FILLER_110_1148
*536 FILLER_110_1160
*537 FILLER_110_1172
*538 FILLER_110_1184
*539 FILLER_110_15
*540 FILLER_110_27
*541 FILLER_110_29
*542 FILLER_110_3
*543 FILLER_110_41
*544 FILLER_110_53
*545 FILLER_110_65
*546 FILLER_111_1122
*547 FILLER_111_1134
*548 FILLER_111_1146
*549 FILLER_111_1158
*550 FILLER_111_1170
*551 FILLER_111_1174
*552 FILLER_111_1176
*553 FILLER_111_1188
*554 FILLER_111_15
*555 FILLER_111_27
*556 FILLER_111_3
*557 FILLER_111_39
*558 FILLER_111_51
*559 FILLER_111_55
*560 FILLER_111_57
*561 FILLER_111_69
*562 FILLER_112_1122
*563 FILLER_112_1134
*564 FILLER_112_1146
*565 FILLER_112_1148
*566 FILLER_112_1160
*567 FILLER_112_1172
*568 FILLER_112_1184
*569 FILLER_112_15
*570 FILLER_112_27
*571 FILLER_112_29
*572 FILLER_112_3
*573 FILLER_112_41
*574 FILLER_112_53
*575 FILLER_112_65
*576 FILLER_113_1122
*577 FILLER_113_1134
*578 FILLER_113_1146
*579 FILLER_113_1158
*580 FILLER_113_1170
*581 FILLER_113_1174
*582 FILLER_113_1176
*583 FILLER_113_1188
*584 FILLER_113_15
*585 FILLER_113_27
*586 FILLER_113_3
*587 FILLER_113_39
*588 FILLER_113_51
*589 FILLER_113_55
*590 FILLER_113_57
*591 FILLER_113_69
*592 FILLER_114_1122
*593 FILLER_114_1134
*594 FILLER_114_1146
*595 FILLER_114_1148
*596 FILLER_114_1160
*597 FILLER_114_1172
*598 FILLER_114_1184
*599 FILLER_114_15
*600 FILLER_114_27
*601 FILLER_114_29
*602 FILLER_114_3
*603 FILLER_114_41
*604 FILLER_114_53
*605 FILLER_114_65
*606 FILLER_115_1122
*607 FILLER_115_1134
*608 FILLER_115_1146
*609 FILLER_115_1158
*610 FILLER_115_1170
*611 FILLER_115_1174
*612 FILLER_115_1176
*613 FILLER_115_1188
*614 FILLER_115_15
*615 FILLER_115_27
*616 FILLER_115_3
*617 FILLER_115_39
*618 FILLER_115_51
*619 FILLER_115_55
*620 FILLER_115_57
*621 FILLER_115_69
*622 FILLER_116_1122
*623 FILLER_116_1134
*624 FILLER_116_1146
*625 FILLER_116_1148
*626 FILLER_116_1160
*627 FILLER_116_1172
*628 FILLER_116_1184
*629 FILLER_116_15
*630 FILLER_116_27
*631 FILLER_116_29
*632 FILLER_116_3
*633 FILLER_116_41
*634 FILLER_116_53
*635 FILLER_116_65
*636 FILLER_117_1006
*637 FILLER_117_1009
*638 FILLER_117_1021
*639 FILLER_117_1029
*640 FILLER_117_1032
*641 FILLER_117_1037
*642 FILLER_117_1049
*643 FILLER_117_1061
*644 FILLER_117_1065
*645 FILLER_117_1077
*646 FILLER_117_1089
*647 FILLER_117_109
*648 FILLER_117_1093
*649 FILLER_117_1105
*650 FILLER_117_1117
*651 FILLER_117_1121
*652 FILLER_117_113
*653 FILLER_117_1133
*654 FILLER_117_1145
*655 FILLER_117_1149
*656 FILLER_117_1161
*657 FILLER_117_1173
*658 FILLER_117_1177
*659 FILLER_117_1189
*660 FILLER_117_125
*661 FILLER_117_137
*662 FILLER_117_141
*663 FILLER_117_15
*664 FILLER_117_153
*665 FILLER_117_165
*666 FILLER_117_169
*667 FILLER_117_181
*668 FILLER_117_193
*669 FILLER_117_197
*670 FILLER_117_209
*671 FILLER_117_221
*672 FILLER_117_225
*673 FILLER_117_237
*674 FILLER_117_249
*675 FILLER_117_253
*676 FILLER_117_265
*677 FILLER_117_27
*678 FILLER_117_277
*679 FILLER_117_281
*680 FILLER_117_29
*681 FILLER_117_293
*682 FILLER_117_3
*683 FILLER_117_305
*684 FILLER_117_309
*685 FILLER_117_321
*686 FILLER_117_333
*687 FILLER_117_337
*688 FILLER_117_349
*689 FILLER_117_361
*690 FILLER_117_365
*691 FILLER_117_377
*692 FILLER_117_389
*693 FILLER_117_393
*694 FILLER_117_405
*695 FILLER_117_41
*696 FILLER_117_417
*697 FILLER_117_421
*698 FILLER_117_433
*699 FILLER_117_445
*700 FILLER_117_449
*701 FILLER_117_461
*702 FILLER_117_473
*703 FILLER_117_477
*704 FILLER_117_489
*705 FILLER_117_501
*706 FILLER_117_505
*707 FILLER_117_513
*708 FILLER_117_519
*709 FILLER_117_53
*710 FILLER_117_531
*711 FILLER_117_533
*712 FILLER_117_539
*713 FILLER_117_551
*714 FILLER_117_561
*715 FILLER_117_57
*716 FILLER_117_573
*717 FILLER_117_577
*718 FILLER_117_585
*719 FILLER_117_589
*720 FILLER_117_595
*721 FILLER_117_624
*722 FILLER_117_631
*723 FILLER_117_643
*724 FILLER_117_645
*725 FILLER_117_651
*726 FILLER_117_680
*727 FILLER_117_69
*728 FILLER_117_697
*729 FILLER_117_701
*730 FILLER_117_710
*731 FILLER_117_722
*732 FILLER_117_729
*733 FILLER_117_741
*734 FILLER_117_746
*735 FILLER_117_754
*736 FILLER_117_757
*737 FILLER_117_766
*738 FILLER_117_778
*739 FILLER_117_788
*740 FILLER_117_800
*741 FILLER_117_81
*742 FILLER_117_818
*743 FILLER_117_830
*744 FILLER_117_838
*745 FILLER_117_841
*746 FILLER_117_85
*747 FILLER_117_853
*748 FILLER_117_865
*749 FILLER_117_869
*750 FILLER_117_881
*751 FILLER_117_893
*752 FILLER_117_897
*753 FILLER_117_909
*754 FILLER_117_921
*755 FILLER_117_927
*756 FILLER_117_935
*757 FILLER_117_939
*758 FILLER_117_951
*759 FILLER_117_953
*760 FILLER_117_965
*761 FILLER_117_97
*762 FILLER_117_977
*763 FILLER_117_981
*764 FILLER_117_994
*765 FILLER_118_1005
*766 FILLER_118_1017
*767 FILLER_118_1029
*768 FILLER_118_1035
*769 FILLER_118_1037
*770 FILLER_118_1049
*771 FILLER_118_1061
*772 FILLER_118_1073
*773 FILLER_118_1085
*774 FILLER_118_109
*775 FILLER_118_1091
*776 FILLER_118_1093
*777 FILLER_118_1105
*778 FILLER_118_1117
*779 FILLER_118_1129
*780 FILLER_118_1141
*781 FILLER_118_1147
*782 FILLER_118_1149
*783 FILLER_118_1161
*784 FILLER_118_1173
*785 FILLER_118_1185
*786 FILLER_118_1189
*787 FILLER_118_121
*788 FILLER_118_133
*789 FILLER_118_139
*790 FILLER_118_141
*791 FILLER_118_15
*792 FILLER_118_153
*793 FILLER_118_165
*794 FILLER_118_177
*795 FILLER_118_189
*796 FILLER_118_195
*797 FILLER_118_197
*798 FILLER_118_209
*799 FILLER_118_221
*800 FILLER_118_233
*801 FILLER_118_245
*802 FILLER_118_251
*803 FILLER_118_253
*804 FILLER_118_265
*805 FILLER_118_27
*806 FILLER_118_277
*807 FILLER_118_289
*808 FILLER_118_29
*809 FILLER_118_3
*810 FILLER_118_301
*811 FILLER_118_307
*812 FILLER_118_309
*813 FILLER_118_321
*814 FILLER_118_333
*815 FILLER_118_345
*816 FILLER_118_357
*817 FILLER_118_363
*818 FILLER_118_365
*819 FILLER_118_377
*820 FILLER_118_389
*821 FILLER_118_401
*822 FILLER_118_41
*823 FILLER_118_413
*824 FILLER_118_419
*825 FILLER_118_421
*826 FILLER_118_433
*827 FILLER_118_445
*828 FILLER_118_457
*829 FILLER_118_469
*830 FILLER_118_475
*831 FILLER_118_477
*832 FILLER_118_489
*833 FILLER_118_501
*834 FILLER_118_507
*835 FILLER_118_519
*836 FILLER_118_529
*837 FILLER_118_53
*838 FILLER_118_533
*839 FILLER_118_545
*840 FILLER_118_571
*841 FILLER_118_583
*842 FILLER_118_587
*843 FILLER_118_589
*844 FILLER_118_592
*845 FILLER_118_604
*846 FILLER_118_616
*847 FILLER_118_628
*848 FILLER_118_634
*849 FILLER_118_637
*850 FILLER_118_643
*851 FILLER_118_645
*852 FILLER_118_65
*853 FILLER_118_675
*854 FILLER_118_687
*855 FILLER_118_699
*856 FILLER_118_703
*857 FILLER_118_715
*858 FILLER_118_727
*859 FILLER_118_739
*860 FILLER_118_749
*861 FILLER_118_755
*862 FILLER_118_757
*863 FILLER_118_765
*864 FILLER_118_77
*865 FILLER_118_790
*866 FILLER_118_802
*867 FILLER_118_810
*868 FILLER_118_813
*869 FILLER_118_825
*870 FILLER_118_83
*871 FILLER_118_837
*872 FILLER_118_849
*873 FILLER_118_85
*874 FILLER_118_861
*875 FILLER_118_867
*876 FILLER_118_869
*877 FILLER_118_881
*878 FILLER_118_893
*879 FILLER_118_905
*880 FILLER_118_917
*881 FILLER_118_923
*882 FILLER_118_925
*883 FILLER_118_937
*884 FILLER_118_949
*885 FILLER_118_961
*886 FILLER_118_97
*887 FILLER_118_973
*888 FILLER_118_979
*889 FILLER_118_981
*890 FILLER_118_993
*891 FILLER_119_1001
*892 FILLER_119_1007
*893 FILLER_119_1009
*894 FILLER_119_1021
*895 FILLER_119_1033
*896 FILLER_119_1045
*897 FILLER_119_105
*898 FILLER_119_1057
*899 FILLER_119_1063
*900 FILLER_119_1065
*901 FILLER_119_1077
*902 FILLER_119_1089
*903 FILLER_119_1101
*904 FILLER_119_111
*905 FILLER_119_1113
*906 FILLER_119_1119
*907 FILLER_119_1121
*908 FILLER_119_113
*909 FILLER_119_1133
*910 FILLER_119_1145
*911 FILLER_119_1157
*912 FILLER_119_1169
*913 FILLER_119_1175
*914 FILLER_119_1177
*915 FILLER_119_1189
*916 FILLER_119_125
*917 FILLER_119_137
*918 FILLER_119_149
*919 FILLER_119_15
*920 FILLER_119_161
*921 FILLER_119_167
*922 FILLER_119_169
*923 FILLER_119_181
*924 FILLER_119_193
*925 FILLER_119_205
*926 FILLER_119_217
*927 FILLER_119_223
*928 FILLER_119_225
*929 FILLER_119_237
*930 FILLER_119_249
*931 FILLER_119_261
*932 FILLER_119_27
*933 FILLER_119_273
*934 FILLER_119_279
*935 FILLER_119_281
*936 FILLER_119_293
*937 FILLER_119_3
*938 FILLER_119_305
*939 FILLER_119_317
*940 FILLER_119_329
*941 FILLER_119_335
*942 FILLER_119_337
*943 FILLER_119_349
*944 FILLER_119_361
*945 FILLER_119_373
*946 FILLER_119_385
*947 FILLER_119_39
*948 FILLER_119_391
*949 FILLER_119_393
*950 FILLER_119_405
*951 FILLER_119_417
*952 FILLER_119_429
*953 FILLER_119_441
*954 FILLER_119_447
*955 FILLER_119_449
*956 FILLER_119_503
*957 FILLER_119_51
*958 FILLER_119_527
*959 FILLER_119_55
*960 FILLER_119_552
*961 FILLER_119_561
*962 FILLER_119_569
*963 FILLER_119_57
*964 FILLER_119_612
*965 FILLER_119_657
*966 FILLER_119_669
*967 FILLER_119_673
*968 FILLER_119_677
*969 FILLER_119_69
*970 FILLER_119_700
*971 FILLER_119_721
*972 FILLER_119_725
*973 FILLER_119_769
*974 FILLER_119_781
*975 FILLER_119_785
*976 FILLER_119_793
*977 FILLER_119_81
*978 FILLER_119_818
*979 FILLER_119_830
*980 FILLER_119_838
*981 FILLER_119_841
*982 FILLER_119_853
*983 FILLER_119_865
*984 FILLER_119_877
*985 FILLER_119_889
*986 FILLER_119_895
*987 FILLER_119_897
*988 FILLER_119_909
*989 FILLER_119_921
*990 FILLER_119_93
*991 FILLER_119_933
*992 FILLER_119_945
*993 FILLER_119_951
*994 FILLER_119_953
*995 FILLER_119_965
*996 FILLER_119_977
*997 FILLER_119_989
*998 FILLER_11_1122
*999 FILLER_11_1134
*1000 FILLER_11_1146
*1001 FILLER_11_1158
*1002 FILLER_11_1170
*1003 FILLER_11_1174
*1004 FILLER_11_1176
*1005 FILLER_11_1188
*1006 FILLER_11_15
*1007 FILLER_11_27
*1008 FILLER_11_3
*1009 FILLER_11_39
*1010 FILLER_11_51
*1011 FILLER_11_55
*1012 FILLER_11_57
*1013 FILLER_11_69
*1014 FILLER_120_1005
*1015 FILLER_120_1017
*1016 FILLER_120_1029
*1017 FILLER_120_1035
*1018 FILLER_120_1037
*1019 FILLER_120_1049
*1020 FILLER_120_1061
*1021 FILLER_120_1073
*1022 FILLER_120_1085
*1023 FILLER_120_109
*1024 FILLER_120_1091
*1025 FILLER_120_1093
*1026 FILLER_120_1105
*1027 FILLER_120_1117
*1028 FILLER_120_1129
*1029 FILLER_120_1141
*1030 FILLER_120_1147
*1031 FILLER_120_1149
*1032 FILLER_120_1161
*1033 FILLER_120_1173
*1034 FILLER_120_1185
*1035 FILLER_120_1189
*1036 FILLER_120_121
*1037 FILLER_120_133
*1038 FILLER_120_139
*1039 FILLER_120_141
*1040 FILLER_120_15
*1041 FILLER_120_153
*1042 FILLER_120_165
*1043 FILLER_120_177
*1044 FILLER_120_189
*1045 FILLER_120_195
*1046 FILLER_120_197
*1047 FILLER_120_209
*1048 FILLER_120_221
*1049 FILLER_120_233
*1050 FILLER_120_245
*1051 FILLER_120_251
*1052 FILLER_120_253
*1053 FILLER_120_265
*1054 FILLER_120_27
*1055 FILLER_120_277
*1056 FILLER_120_289
*1057 FILLER_120_29
*1058 FILLER_120_3
*1059 FILLER_120_301
*1060 FILLER_120_307
*1061 FILLER_120_309
*1062 FILLER_120_321
*1063 FILLER_120_333
*1064 FILLER_120_345
*1065 FILLER_120_357
*1066 FILLER_120_363
*1067 FILLER_120_365
*1068 FILLER_120_377
*1069 FILLER_120_389
*1070 FILLER_120_401
*1071 FILLER_120_41
*1072 FILLER_120_413
*1073 FILLER_120_419
*1074 FILLER_120_421
*1075 FILLER_120_433
*1076 FILLER_120_445
*1077 FILLER_120_457
*1078 FILLER_120_469
*1079 FILLER_120_475
*1080 FILLER_120_477
*1081 FILLER_120_489
*1082 FILLER_120_501
*1083 FILLER_120_513
*1084 FILLER_120_525
*1085 FILLER_120_53
*1086 FILLER_120_531
*1087 FILLER_120_533
*1088 FILLER_120_545
*1089 FILLER_120_557
*1090 FILLER_120_569
*1091 FILLER_120_581
*1092 FILLER_120_587
*1093 FILLER_120_589
*1094 FILLER_120_601
*1095 FILLER_120_613
*1096 FILLER_120_625
*1097 FILLER_120_637
*1098 FILLER_120_643
*1099 FILLER_120_645
*1100 FILLER_120_65
*1101 FILLER_120_657
*1102 FILLER_120_669
*1103 FILLER_120_681
*1104 FILLER_120_693
*1105 FILLER_120_699
*1106 FILLER_120_701
*1107 FILLER_120_713
*1108 FILLER_120_725
*1109 FILLER_120_737
*1110 FILLER_120_749
*1111 FILLER_120_755
*1112 FILLER_120_757
*1113 FILLER_120_769
*1114 FILLER_120_77
*1115 FILLER_120_781
*1116 FILLER_120_793
*1117 FILLER_120_805
*1118 FILLER_120_811
*1119 FILLER_120_813
*1120 FILLER_120_825
*1121 FILLER_120_83
*1122 FILLER_120_837
*1123 FILLER_120_849
*1124 FILLER_120_85
*1125 FILLER_120_861
*1126 FILLER_120_867
*1127 FILLER_120_869
*1128 FILLER_120_881
*1129 FILLER_120_893
*1130 FILLER_120_905
*1131 FILLER_120_917
*1132 FILLER_120_923
*1133 FILLER_120_925
*1134 FILLER_120_937
*1135 FILLER_120_949
*1136 FILLER_120_961
*1137 FILLER_120_97
*1138 FILLER_120_973
*1139 FILLER_120_979
*1140 FILLER_120_981
*1141 FILLER_120_993
*1142 FILLER_121_1001
*1143 FILLER_121_1007
*1144 FILLER_121_1009
*1145 FILLER_121_1021
*1146 FILLER_121_1033
*1147 FILLER_121_1045
*1148 FILLER_121_105
*1149 FILLER_121_1057
*1150 FILLER_121_1063
*1151 FILLER_121_1065
*1152 FILLER_121_1077
*1153 FILLER_121_1089
*1154 FILLER_121_1101
*1155 FILLER_121_111
*1156 FILLER_121_1113
*1157 FILLER_121_1119
*1158 FILLER_121_1121
*1159 FILLER_121_113
*1160 FILLER_121_1133
*1161 FILLER_121_1145
*1162 FILLER_121_1157
*1163 FILLER_121_1169
*1164 FILLER_121_1175
*1165 FILLER_121_1177
*1166 FILLER_121_1189
*1167 FILLER_121_125
*1168 FILLER_121_137
*1169 FILLER_121_149
*1170 FILLER_121_15
*1171 FILLER_121_161
*1172 FILLER_121_167
*1173 FILLER_121_169
*1174 FILLER_121_181
*1175 FILLER_121_193
*1176 FILLER_121_205
*1177 FILLER_121_217
*1178 FILLER_121_223
*1179 FILLER_121_225
*1180 FILLER_121_237
*1181 FILLER_121_249
*1182 FILLER_121_261
*1183 FILLER_121_27
*1184 FILLER_121_273
*1185 FILLER_121_279
*1186 FILLER_121_281
*1187 FILLER_121_293
*1188 FILLER_121_3
*1189 FILLER_121_305
*1190 FILLER_121_317
*1191 FILLER_121_329
*1192 FILLER_121_335
*1193 FILLER_121_337
*1194 FILLER_121_349
*1195 FILLER_121_361
*1196 FILLER_121_373
*1197 FILLER_121_385
*1198 FILLER_121_39
*1199 FILLER_121_391
*1200 FILLER_121_393
*1201 FILLER_121_405
*1202 FILLER_121_417
*1203 FILLER_121_429
*1204 FILLER_121_441
*1205 FILLER_121_447
*1206 FILLER_121_449
*1207 FILLER_121_461
*1208 FILLER_121_473
*1209 FILLER_121_485
*1210 FILLER_121_497
*1211 FILLER_121_503
*1212 FILLER_121_505
*1213 FILLER_121_51
*1214 FILLER_121_517
*1215 FILLER_121_529
*1216 FILLER_121_541
*1217 FILLER_121_55
*1218 FILLER_121_553
*1219 FILLER_121_559
*1220 FILLER_121_561
*1221 FILLER_121_57
*1222 FILLER_121_573
*1223 FILLER_121_585
*1224 FILLER_121_597
*1225 FILLER_121_609
*1226 FILLER_121_615
*1227 FILLER_121_617
*1228 FILLER_121_629
*1229 FILLER_121_641
*1230 FILLER_121_653
*1231 FILLER_121_665
*1232 FILLER_121_671
*1233 FILLER_121_673
*1234 FILLER_121_685
*1235 FILLER_121_69
*1236 FILLER_121_697
*1237 FILLER_121_709
*1238 FILLER_121_721
*1239 FILLER_121_727
*1240 FILLER_121_729
*1241 FILLER_121_741
*1242 FILLER_121_753
*1243 FILLER_121_765
*1244 FILLER_121_777
*1245 FILLER_121_783
*1246 FILLER_121_785
*1247 FILLER_121_797
*1248 FILLER_121_809
*1249 FILLER_121_81
*1250 FILLER_121_821
*1251 FILLER_121_833
*1252 FILLER_121_839
*1253 FILLER_121_841
*1254 FILLER_121_853
*1255 FILLER_121_865
*1256 FILLER_121_877
*1257 FILLER_121_889
*1258 FILLER_121_895
*1259 FILLER_121_897
*1260 FILLER_121_909
*1261 FILLER_121_921
*1262 FILLER_121_93
*1263 FILLER_121_933
*1264 FILLER_121_945
*1265 FILLER_121_951
*1266 FILLER_121_953
*1267 FILLER_121_965
*1268 FILLER_121_977
*1269 FILLER_121_989
*1270 FILLER_122_1005
*1271 FILLER_122_1017
*1272 FILLER_122_1029
*1273 FILLER_122_1035
*1274 FILLER_122_1037
*1275 FILLER_122_1049
*1276 FILLER_122_1061
*1277 FILLER_122_1073
*1278 FILLER_122_1085
*1279 FILLER_122_109
*1280 FILLER_122_1091
*1281 FILLER_122_1093
*1282 FILLER_122_1105
*1283 FILLER_122_1117
*1284 FILLER_122_1129
*1285 FILLER_122_1141
*1286 FILLER_122_1147
*1287 FILLER_122_1149
*1288 FILLER_122_1161
*1289 FILLER_122_1173
*1290 FILLER_122_1185
*1291 FILLER_122_1189
*1292 FILLER_122_121
*1293 FILLER_122_133
*1294 FILLER_122_139
*1295 FILLER_122_141
*1296 FILLER_122_15
*1297 FILLER_122_153
*1298 FILLER_122_165
*1299 FILLER_122_177
*1300 FILLER_122_189
*1301 FILLER_122_195
*1302 FILLER_122_197
*1303 FILLER_122_209
*1304 FILLER_122_221
*1305 FILLER_122_233
*1306 FILLER_122_245
*1307 FILLER_122_251
*1308 FILLER_122_253
*1309 FILLER_122_265
*1310 FILLER_122_27
*1311 FILLER_122_277
*1312 FILLER_122_289
*1313 FILLER_122_29
*1314 FILLER_122_3
*1315 FILLER_122_301
*1316 FILLER_122_307
*1317 FILLER_122_309
*1318 FILLER_122_321
*1319 FILLER_122_333
*1320 FILLER_122_345
*1321 FILLER_122_357
*1322 FILLER_122_363
*1323 FILLER_122_365
*1324 FILLER_122_377
*1325 FILLER_122_389
*1326 FILLER_122_401
*1327 FILLER_122_41
*1328 FILLER_122_413
*1329 FILLER_122_419
*1330 FILLER_122_421
*1331 FILLER_122_433
*1332 FILLER_122_445
*1333 FILLER_122_457
*1334 FILLER_122_469
*1335 FILLER_122_475
*1336 FILLER_122_477
*1337 FILLER_122_489
*1338 FILLER_122_501
*1339 FILLER_122_513
*1340 FILLER_122_525
*1341 FILLER_122_53
*1342 FILLER_122_531
*1343 FILLER_122_533
*1344 FILLER_122_545
*1345 FILLER_122_557
*1346 FILLER_122_569
*1347 FILLER_122_581
*1348 FILLER_122_587
*1349 FILLER_122_589
*1350 FILLER_122_601
*1351 FILLER_122_613
*1352 FILLER_122_625
*1353 FILLER_122_637
*1354 FILLER_122_643
*1355 FILLER_122_645
*1356 FILLER_122_65
*1357 FILLER_122_657
*1358 FILLER_122_669
*1359 FILLER_122_681
*1360 FILLER_122_693
*1361 FILLER_122_699
*1362 FILLER_122_701
*1363 FILLER_122_713
*1364 FILLER_122_725
*1365 FILLER_122_737
*1366 FILLER_122_749
*1367 FILLER_122_755
*1368 FILLER_122_757
*1369 FILLER_122_769
*1370 FILLER_122_77
*1371 FILLER_122_781
*1372 FILLER_122_793
*1373 FILLER_122_805
*1374 FILLER_122_811
*1375 FILLER_122_813
*1376 FILLER_122_825
*1377 FILLER_122_83
*1378 FILLER_122_837
*1379 FILLER_122_849
*1380 FILLER_122_85
*1381 FILLER_122_861
*1382 FILLER_122_867
*1383 FILLER_122_869
*1384 FILLER_122_881
*1385 FILLER_122_893
*1386 FILLER_122_905
*1387 FILLER_122_917
*1388 FILLER_122_923
*1389 FILLER_122_925
*1390 FILLER_122_937
*1391 FILLER_122_949
*1392 FILLER_122_961
*1393 FILLER_122_97
*1394 FILLER_122_973
*1395 FILLER_122_979
*1396 FILLER_122_981
*1397 FILLER_122_993
*1398 FILLER_123_1001
*1399 FILLER_123_1007
*1400 FILLER_123_1009
*1401 FILLER_123_1021
*1402 FILLER_123_1033
*1403 FILLER_123_1045
*1404 FILLER_123_105
*1405 FILLER_123_1057
*1406 FILLER_123_1063
*1407 FILLER_123_1065
*1408 FILLER_123_1077
*1409 FILLER_123_1089
*1410 FILLER_123_1101
*1411 FILLER_123_111
*1412 FILLER_123_1113
*1413 FILLER_123_1119
*1414 FILLER_123_1121
*1415 FILLER_123_113
*1416 FILLER_123_1133
*1417 FILLER_123_1145
*1418 FILLER_123_1157
*1419 FILLER_123_1169
*1420 FILLER_123_1175
*1421 FILLER_123_1177
*1422 FILLER_123_1189
*1423 FILLER_123_125
*1424 FILLER_123_137
*1425 FILLER_123_149
*1426 FILLER_123_15
*1427 FILLER_123_161
*1428 FILLER_123_167
*1429 FILLER_123_169
*1430 FILLER_123_181
*1431 FILLER_123_193
*1432 FILLER_123_205
*1433 FILLER_123_217
*1434 FILLER_123_223
*1435 FILLER_123_225
*1436 FILLER_123_237
*1437 FILLER_123_249
*1438 FILLER_123_261
*1439 FILLER_123_27
*1440 FILLER_123_273
*1441 FILLER_123_279
*1442 FILLER_123_281
*1443 FILLER_123_293
*1444 FILLER_123_3
*1445 FILLER_123_305
*1446 FILLER_123_317
*1447 FILLER_123_329
*1448 FILLER_123_335
*1449 FILLER_123_337
*1450 FILLER_123_349
*1451 FILLER_123_361
*1452 FILLER_123_373
*1453 FILLER_123_385
*1454 FILLER_123_39
*1455 FILLER_123_391
*1456 FILLER_123_393
*1457 FILLER_123_405
*1458 FILLER_123_417
*1459 FILLER_123_429
*1460 FILLER_123_441
*1461 FILLER_123_447
*1462 FILLER_123_449
*1463 FILLER_123_461
*1464 FILLER_123_473
*1465 FILLER_123_485
*1466 FILLER_123_497
*1467 FILLER_123_503
*1468 FILLER_123_505
*1469 FILLER_123_51
*1470 FILLER_123_517
*1471 FILLER_123_529
*1472 FILLER_123_541
*1473 FILLER_123_55
*1474 FILLER_123_553
*1475 FILLER_123_559
*1476 FILLER_123_561
*1477 FILLER_123_57
*1478 FILLER_123_573
*1479 FILLER_123_585
*1480 FILLER_123_597
*1481 FILLER_123_609
*1482 FILLER_123_615
*1483 FILLER_123_617
*1484 FILLER_123_629
*1485 FILLER_123_641
*1486 FILLER_123_653
*1487 FILLER_123_665
*1488 FILLER_123_671