*SPEF "ieee 1481-1999"
*DESIGN "counter"
*DATE "08:16:16 Tuesday March 04, 2025"
*VENDOR "The OpenROAD Project"
*PROGRAM "OpenROAD"
*VERSION "edf00dff99f6c40d67a30c0e22a8191c5d2ed9d6"
*DESIGN_FLOW "NAME_SCOPE LOCAL" "PIN_CAP NONE"
*DIVIDER /
*DELIMITER :
*BUS_DELIMITER []
*T_UNIT 1 NS
*C_UNIT 1 PF
*R_UNIT 1 OHM
*L_UNIT 1 HENRY

*NAME_MAP
*1 addr0[0]
*2 addr0[1]
*3 addr0[2]
*4 addr0[3]
*5 addr0[4]
*6 addr0[5]
*7 addr0[6]
*8 addr0[7]
*9 clk
*10 csb0
*11 din0[0]
*12 din0[10]
*13 din0[11]
*14 din0[12]
*15 din0[13]
*16 din0[14]
*17 din0[15]
*18 din0[1]
*19 din0[2]
*20 din0[3]
*21 din0[4]
*22 din0[5]
*23 din0[6]
*24 din0[7]
*25 din0[8]
*26 din0[9]
*27 rst
*28 sine_out[0]
*29 sine_out[10]
*30 sine_out[11]
*31 sine_out[12]
*32 sine_out[13]
*33 sine_out[14]
*34 sine_out[15]
*35 sine_out[1]
*36 sine_out[2]
*37 sine_out[3]
*38 sine_out[4]
*39 sine_out[5]
*40 sine_out[6]
*41 sine_out[7]
*42 sine_out[8]
*43 sine_out[9]
*46 _000_
*47 _001_
*48 _002_
*49 _003_
*50 _004_
*51 _005_
*52 _006_
*53 _007_
*54 _008_
*55 _009_
*56 _010_
*57 _011_
*58 _012_
*59 _013_
*60 _014_
*61 _015_
*62 _016_
*63 _017_
*64 _018_
*65 _019_
*66 _020_
*67 _021_
*68 _022_
*69 _023_
*70 _024_
*71 _025_
*72 _026_
*73 _027_
*74 _028_
*75 _029_
*76 _030_
*77 _031_
*78 _032_
*79 _033_
*80 _034_
*81 _035_
*82 _036_
*83 _037_
*84 _038_
*85 clknet_0_clk
*86 clknet_1_0__leaf_clk
*87 clknet_1_1__leaf_clk
*88 net1
*89 net10
*90 net11
*91 net12
*92 net13
*93 net14
*94 net15
*95 net16
*96 net17
*97 net18
*98 net19
*99 net2
*100 net20
*101 net21
*102 net22
*103 net23
*104 net24
*105 net25
*106 net26
*107 net27
*108 net28
*109 net29
*110 net3
*111 net30
*112 net31
*113 net32
*114 net33
*115 net34
*116 net35
*117 net36
*118 net37
*119 net38
*120 net39
*121 net4
*122 net40
*123 net41
*124 net42
*125 net43
*126 net44
*127 net45
*128 net46
*129 net5
*130 net6
*131 net7
*132 net8
*133 net9
*134 sine_out_temp\[0\]
*135 sine_out_temp\[10\]
*136 sine_out_temp\[11\]
*137 sine_out_temp\[12\]
*138 sine_out_temp\[13\]
*139 sine_out_temp\[14\]
*140 sine_out_temp\[15\]
*141 sine_out_temp\[1\]
*142 sine_out_temp\[2\]
*143 sine_out_temp\[3\]
*144 sine_out_temp\[4\]
*145 sine_out_temp\[5\]
*146 sine_out_temp\[6\]
*147 sine_out_temp\[7\]
*148 sine_out_temp\[8\]
*149 sine_out_temp\[9\]
*150 tcout\[0\]
*151 tcout\[1\]
*152 tcout\[2\]
*153 tcout\[3\]
*154 tcout\[4\]
*155 tcout\[5\]
*156 tcout\[6\]
*157 tcout\[7\]
*158 ANTENNA_1
*159 ANTENNA_2
*160 ANTENNA_3
*161 ANTENNA_4
*162 ANTENNA__040__A
*163 ANTENNA__042__A
*164 ANTENNA__042__B
*165 ANTENNA__043__A
*166 ANTENNA__043__B
*167 ANTENNA__043__C
*168 ANTENNA__043__X
*169 ANTENNA__044__A1
*170 ANTENNA__044__A2
*171 ANTENNA__044__B1
*172 ANTENNA__045__A
*173 ANTENNA__046__B
*174 ANTENNA__047__B
*175 ANTENNA__048__C
*176 ANTENNA__050__C
*177 ANTENNA__051__A1_N
*178 ANTENNA__051__B2
*179 ANTENNA__052__A
*180 ANTENNA__052__B
*181 ANTENNA__053__A1
*182 ANTENNA__053__B1
*183 ANTENNA__055__A
*184 ANTENNA__068__A
*185 ANTENNA__068__Y
*186 ANTENNA__069__A
*187 ANTENNA__070__A
*188 ANTENNA__071__A
*189 ANTENNA__072__A
*190 ANTENNA__073__A
*191 ANTENNA__074__A
*192 ANTENNA__075__A
*193 ANTENNA__079__CLK
*194 ANTENNA__080__CLK
*195 ANTENNA__081__CLK
*196 ANTENNA__082__CLK
*197 ANTENNA__083__CLK
*198 ANTENNA__084__CLK
*199 ANTENNA__085__CLK
*200 ANTENNA__086__CLK
*201 ANTENNA__087__CLK
*202 ANTENNA__088__CLK
*203 ANTENNA__089__CLK
*204 ANTENNA__090__CLK
*205 ANTENNA__091__CLK
*206 ANTENNA__092__CLK
*207 ANTENNA__092__Q
*208 ANTENNA__092__RESET_B
*209 ANTENNA__093__CLK
*210 ANTENNA__093__Q
*211 ANTENNA__094__CLK
*212 ANTENNA__094__Q
*213 ANTENNA__095__CLK
*214 ANTENNA__096__CLK
*215 ANTENNA__097__CLK
*216 ANTENNA__097__Q
*217 ANTENNA__098__CLK
*218 ANTENNA__098__Q
*219 ANTENNA__099__CLK
*220 ANTENNA__099__Q
*221 ANTENNA__100__CLK
*222 ANTENNA__101__CLK
*223 ANTENNA__102__CLK
*224 ANTENNA_clkbuf_0_clk_A
*225 ANTENNA_clkbuf_0_clk_X
*226 ANTENNA_clkbuf_1_0__f_clk_A
*227 ANTENNA_clkbuf_1_0__f_clk_X
*228 ANTENNA_clkbuf_1_1__f_clk_A
*229 ANTENNA_clkbuf_1_1__f_clk_X
*230 ANTENNA_clkload0_A
*231 ANTENNA_fanout43_A
*232 ANTENNA_fanout44_A
*233 ANTENNA_fanout45_X
*234 ANTENNA_input10_A
*235 ANTENNA_input11_A
*236 ANTENNA_input12_A
*237 ANTENNA_input13_A
*238 ANTENNA_input14_A
*239 ANTENNA_input15_A
*240 ANTENNA_input16_A
*241 ANTENNA_input17_A
*242 ANTENNA_input18_A
*243 ANTENNA_input19_A
*244 ANTENNA_input1_A
*245 ANTENNA_input20_A
*246 ANTENNA_input21_A
*247 ANTENNA_input22_A
*248 ANTENNA_input23_A
*249 ANTENNA_input24_A
*250 ANTENNA_input25_A
*251 ANTENNA_input26_A
*252 ANTENNA_input2_A
*253 ANTENNA_input3_A
*254 ANTENNA_input4_A
*255 ANTENNA_input5_A
*256 ANTENNA_input6_A
*257 ANTENNA_input7_A
*258 ANTENNA_input8_A
*259 ANTENNA_input9_A
*260 ANTENNA_mem_i_addr1\[0\]
*261 ANTENNA_mem_i_addr1\[1\]
*262 ANTENNA_mem_i_addr1\[2\]
*263 ANTENNA_mem_i_addr1\[5\]
*264 ANTENNA_mem_i_addr1\[6\]
*265 ANTENNA_mem_i_addr1\[7\]
*266 ANTENNA_mem_i_clk0
*267 ANTENNA_mem_i_clk1
*268 FILLER_0_1005
*269 FILLER_0_1009
*270 FILLER_0_1021
*271 FILLER_0_1033
*272 FILLER_0_1037
*273 FILLER_0_1049
*274 FILLER_0_1061
*275 FILLER_0_1065
*276 FILLER_0_1077
*277 FILLER_0_1089
*278 FILLER_0_109
*279 FILLER_0_1093
*280 FILLER_0_1105
*281 FILLER_0_1117
*282 FILLER_0_1121
*283 FILLER_0_113
*284 FILLER_0_1133
*285 FILLER_0_1145
*286 FILLER_0_1149
*287 FILLER_0_1161
*288 FILLER_0_1173
*289 FILLER_0_1177
*290 FILLER_0_1189
*291 FILLER_0_125
*292 FILLER_0_137
*293 FILLER_0_141
*294 FILLER_0_15
*295 FILLER_0_153
*296 FILLER_0_165
*297 FILLER_0_169
*298 FILLER_0_181
*299 FILLER_0_193
*300 FILLER_0_197
*301 FILLER_0_209
*302 FILLER_0_221
*303 FILLER_0_225
*304 FILLER_0_237
*305 FILLER_0_244
*306 FILLER_0_258
*307 FILLER_0_266
*308 FILLER_0_27
*309 FILLER_0_272
*310 FILLER_0_286
*311 FILLER_0_29
*312 FILLER_0_294
*313 FILLER_0_3
*314 FILLER_0_300
*315 FILLER_0_307
*316 FILLER_0_309
*317 FILLER_0_315
*318 FILLER_0_321
*319 FILLER_0_329
*320 FILLER_0_335
*321 FILLER_0_337
*322 FILLER_0_343
*323 FILLER_0_349
*324 FILLER_0_357
*325 FILLER_0_363
*326 FILLER_0_365
*327 FILLER_0_371
*328 FILLER_0_377
*329 FILLER_0_384
*330 FILLER_0_398
*331 FILLER_0_406
*332 FILLER_0_41
*333 FILLER_0_412
*334 FILLER_0_426
*335 FILLER_0_434
*336 FILLER_0_440
*337 FILLER_0_447
*338 FILLER_0_449
*339 FILLER_0_455
*340 FILLER_0_461
*341 FILLER_0_473
*342 FILLER_0_477
*343 FILLER_0_489
*344 FILLER_0_501
*345 FILLER_0_505
*346 FILLER_0_517
*347 FILLER_0_529
*348 FILLER_0_53
*349 FILLER_0_533
*350 FILLER_0_545
*351 FILLER_0_557
*352 FILLER_0_561
*353 FILLER_0_57
*354 FILLER_0_573
*355 FILLER_0_585
*356 FILLER_0_589
*357 FILLER_0_601
*358 FILLER_0_613
*359 FILLER_0_617
*360 FILLER_0_629
*361 FILLER_0_641
*362 FILLER_0_645
*363 FILLER_0_657
*364 FILLER_0_669
*365 FILLER_0_673
*366 FILLER_0_685
*367 FILLER_0_69
*368 FILLER_0_697
*369 FILLER_0_701
*370 FILLER_0_713
*371 FILLER_0_725
*372 FILLER_0_729
*373 FILLER_0_741
*374 FILLER_0_753
*375 FILLER_0_757
*376 FILLER_0_769
*377 FILLER_0_781
*378 FILLER_0_785
*379 FILLER_0_797
*380 FILLER_0_809
*381 FILLER_0_81
*382 FILLER_0_813
*383 FILLER_0_825
*384 FILLER_0_837
*385 FILLER_0_841
*386 FILLER_0_85
*387 FILLER_0_853
*388 FILLER_0_865
*389 FILLER_0_869
*390 FILLER_0_881
*391 FILLER_0_893
*392 FILLER_0_897
*393 FILLER_0_909
*394 FILLER_0_921
*395 FILLER_0_925
*396 FILLER_0_937
*397 FILLER_0_949
*398 FILLER_0_953
*399 FILLER_0_965
*400 FILLER_0_97
*401 FILLER_0_977
*402 FILLER_0_981
*403 FILLER_0_993
*404 FILLER_100_1150
*405 FILLER_100_1162
*406 FILLER_100_1174
*407 FILLER_100_1186
*408 FILLER_100_15
*409 FILLER_100_27
*410 FILLER_100_29
*411 FILLER_100_3
*412 FILLER_100_41
*413 FILLER_100_53
*414 FILLER_100_65
*415 FILLER_101_1122
*416 FILLER_101_1134
*417 FILLER_101_1146
*418 FILLER_101_1158
*419 FILLER_101_1170
*420 FILLER_101_1174
*421 FILLER_101_1176
*422 FILLER_101_1188
*423 FILLER_101_15
*424 FILLER_101_27
*425 FILLER_101_3
*426 FILLER_101_39
*427 FILLER_101_51
*428 FILLER_101_55
*429 FILLER_101_57
*430 FILLER_101_69
*431 FILLER_102_1122
*432 FILLER_102_1134
*433 FILLER_102_1146
*434 FILLER_102_1148
*435 FILLER_102_1160
*436 FILLER_102_1172
*437 FILLER_102_1184
*438 FILLER_102_15
*439 FILLER_102_27
*440 FILLER_102_29
*441 FILLER_102_3
*442 FILLER_102_41
*443 FILLER_102_53
*444 FILLER_102_65
*445 FILLER_103_1122
*446 FILLER_103_1134
*447 FILLER_103_1146
*448 FILLER_103_1158
*449 FILLER_103_1170
*450 FILLER_103_1174
*451 FILLER_103_1176
*452 FILLER_103_1188
*453 FILLER_103_15
*454 FILLER_103_27
*455 FILLER_103_3
*456 FILLER_103_39
*457 FILLER_103_51
*458 FILLER_103_55
*459 FILLER_103_57
*460 FILLER_103_69
*461 FILLER_104_1122
*462 FILLER_104_1134
*463 FILLER_104_1146
*464 FILLER_104_1148
*465 FILLER_104_1160
*466 FILLER_104_1172
*467 FILLER_104_1184
*468 FILLER_104_15
*469 FILLER_104_27
*470 FILLER_104_29
*471 FILLER_104_3
*472 FILLER_104_41
*473 FILLER_104_53
*474 FILLER_104_65
*475 FILLER_105_1122
*476 FILLER_105_1134
*477 FILLER_105_1146
*478 FILLER_105_1158
*479 FILLER_105_1170
*480 FILLER_105_1174
*481 FILLER_105_1176
*482 FILLER_105_1188
*483 FILLER_105_15
*484 FILLER_105_27
*485 FILLER_105_3
*486 FILLER_105_39
*487 FILLER_105_51
*488 FILLER_105_55
*489 FILLER_105_57
*490 FILLER_105_69
*491 FILLER_106_1125
*492 FILLER_106_1137
*493 FILLER_106_1145
*494 FILLER_106_1148
*495 FILLER_106_1160
*496 FILLER_106_1172
*497 FILLER_106_1184
*498 FILLER_106_15
*499 FILLER_106_27
*500 FILLER_106_29
*501 FILLER_106_3
*502 FILLER_106_41
*503 FILLER_106_53
*504 FILLER_106_65
*505 FILLER_107_1122
*506 FILLER_107_1134
*507 FILLER_107_1146
*508 FILLER_107_1158
*509 FILLER_107_1170
*510 FILLER_107_1174
*511 FILLER_107_1176
*512 FILLER_107_1188
*513 FILLER_107_15
*514 FILLER_107_27
*515 FILLER_107_3
*516 FILLER_107_39
*517 FILLER_107_51
*518 FILLER_107_55
*519 FILLER_107_57
*520 FILLER_107_69
*521 FILLER_108_1122
*522 FILLER_108_1134
*523 FILLER_108_1146
*524 FILLER_108_1148
*525 FILLER_108_1160
*526 FILLER_108_1172
*527 FILLER_108_1184
*528 FILLER_108_15
*529 FILLER_108_27
*530 FILLER_108_29
*531 FILLER_108_3
*532 FILLER_108_41
*533 FILLER_108_53
*534 FILLER_108_65
*535 FILLER_109_1122
*536 FILLER_109_1134
*537 FILLER_109_1146
*538 FILLER_109_1158
*539 FILLER_109_1170
*540 FILLER_109_1174
*541 FILLER_109_1176
*542 FILLER_109_1188
*543 FILLER_109_15
*544 FILLER_109_27
*545 FILLER_109_3
*546 FILLER_109_39
*547 FILLER_109_51
*548 FILLER_109_55
*549 FILLER_109_57
*550 FILLER_109_69
*551 FILLER_10_1122
*552 FILLER_10_1134
*553 FILLER_10_1146
*554 FILLER_10_1148
*555 FILLER_10_1160
*556 FILLER_10_1172
*557 FILLER_10_1184
*558 FILLER_10_15
*559 FILLER_10_27
*560 FILLER_10_29
*561 FILLER_10_3
*562 FILLER_10_41
*563 FILLER_10_53
*564 FILLER_10_65
*565 FILLER_110_1122
*566 FILLER_110_1134
*567 FILLER_110_1146
*568 FILLER_110_1148
*569 FILLER_110_1160
*570 FILLER_110_1172
*571 FILLER_110_1184
*572 FILLER_110_15
*573 FILLER_110_27
*574 FILLER_110_29
*575 FILLER_110_3
*576 FILLER_110_41
*577 FILLER_110_53
*578 FILLER_110_65
*579 FILLER_111_1122
*580 FILLER_111_1134
*581 FILLER_111_1146
*582 FILLER_111_1158
*583 FILLER_111_1170
*584 FILLER_111_1174
*585 FILLER_111_1176
*586 FILLER_111_1188
*587 FILLER_111_15
*588 FILLER_111_27
*589 FILLER_111_3
*590 FILLER_111_39
*591 FILLER_111_51
*592 FILLER_111_55
*593 FILLER_111_57
*594 FILLER_111_69
*595 FILLER_112_1122
*596 FILLER_112_1134
*597 FILLER_112_1146
*598 FILLER_112_1148
*599 FILLER_112_1160
*600 FILLER_112_1172
*601 FILLER_112_1184
*602 FILLER_112_15
*603 FILLER_112_27
*604 FILLER_112_29
*605 FILLER_112_3
*606 FILLER_112_41
*607 FILLER_112_53
*608 FILLER_112_65
*609 FILLER_113_1122
*610 FILLER_113_1134
*611 FILLER_113_1146
*612 FILLER_113_1158
*613 FILLER_113_1170
*614 FILLER_113_1174
*615 FILLER_113_1176
*616 FILLER_113_1188
*617 FILLER_113_15
*618 FILLER_113_27
*619 FILLER_113_3
*620 FILLER_113_39
*621 FILLER_113_51
*622 FILLER_113_55
*623 FILLER_113_57
*624 FILLER_113_69
*625 FILLER_114_1122
*626 FILLER_114_1134
*627 FILLER_114_1146
*628 FILLER_114_1148
*629 FILLER_114_1160
*630 FILLER_114_1172
*631 FILLER_114_1184
*632 FILLER_114_15
*633 FILLER_114_27
*634 FILLER_114_29
*635 FILLER_114_3
*636 FILLER_114_41
*637 FILLER_114_53
*638 FILLER_114_65
*639 FILLER_115_1122
*640 FILLER_115_1134
*641 FILLER_115_1146
*642 FILLER_115_1158
*643 FILLER_115_1170
*644 FILLER_115_1174
*645 FILLER_115_1176
*646 FILLER_115_1188
*647 FILLER_115_15
*648 FILLER_115_27
*649 FILLER_115_3
*650 FILLER_115_39
*651 FILLER_115_51
*652 FILLER_115_55
*653 FILLER_115_57
*654 FILLER_115_69
*655 FILLER_116_1122
*656 FILLER_116_1134
*657 FILLER_116_1146
*658 FILLER_116_1148
*659 FILLER_116_1160
*660 FILLER_116_1172
*661 FILLER_116_1184
*662 FILLER_116_15
*663 FILLER_116_27
*664 FILLER_116_29
*665 FILLER_116_3
*666 FILLER_116_41
*667 FILLER_116_53
*668 FILLER_116_65
*669 FILLER_117_1007
*670 FILLER_117_1009
*671 FILLER_117_1021
*672 FILLER_117_1029
*673 FILLER_117_1032
*674 FILLER_117_1037
*675 FILLER_117_1049
*676 FILLER_117_1061
*677 FILLER_117_1065
*678 FILLER_117_1077
*679 FILLER_117_1089
*680 FILLER_117_109
*681 FILLER_117_1093
*682 FILLER_117_1105
*683 FILLER_117_1117
*684 FILLER_117_1121
*685 FILLER_117_113
*686 FILLER_117_1133
*687 FILLER_117_1145
*688 FILLER_117_1149
*689 FILLER_117_1161
*690 FILLER_117_1173
*691 FILLER_117_1177
*692 FILLER_117_1189
*693 FILLER_117_125
*694 FILLER_117_137
*695 FILLER_117_141
*696 FILLER_117_15
*697 FILLER_117_153
*698 FILLER_117_165
*699 FILLER_117_169
*700 FILLER_117_181
*701 FILLER_117_193
*702 FILLER_117_197
*703 FILLER_117_209
*704 FILLER_117_221
*705 FILLER_117_225
*706 FILLER_117_237
*707 FILLER_117_249
*708 FILLER_117_253
*709 FILLER_117_265
*710 FILLER_117_27
*711 FILLER_117_277
*712 FILLER_117_281
*713 FILLER_117_29
*714 FILLER_117_293
*715 FILLER_117_3
*716 FILLER_117_305
*717 FILLER_117_309
*718 FILLER_117_321
*719 FILLER_117_333
*720 FILLER_117_337
*721 FILLER_117_349
*722 FILLER_117_361
*723 FILLER_117_365
*724 FILLER_117_377
*725 FILLER_117_389
*726 FILLER_117_393
*727 FILLER_117_405
*728 FILLER_117_41
*729 FILLER_117_417
*730 FILLER_117_421
*731 FILLER_117_433
*732 FILLER_117_445
*733 FILLER_117_449
*734 FILLER_117_461
*735 FILLER_117_473
*736 FILLER_117_477
*737 FILLER_117_489
*738 FILLER_117_501
*739 FILLER_117_505
*740 FILLER_117_513
*741 FILLER_117_518
*742 FILLER_117_53
*743 FILLER_117_530
*744 FILLER_117_533
*745 FILLER_117_538
*746 FILLER_117_550
*747 FILLER_117_557
*748 FILLER_117_561
*749 FILLER_117_57
*750 FILLER_117_573
*751 FILLER_117_577
*752 FILLER_117_585
*753 FILLER_117_589
*754 FILLER_117_624
*755 FILLER_117_628
*756 FILLER_117_632
*757 FILLER_117_645
*758 FILLER_117_651
*759 FILLER_117_680
*760 FILLER_117_684
*761 FILLER_117_69
*762 FILLER_117_696
*763 FILLER_117_701
*764 FILLER_117_706
*765 FILLER_117_718
*766 FILLER_117_727
*767 FILLER_117_729
*768 FILLER_117_741
*769 FILLER_117_745
*770 FILLER_117_753
*771 FILLER_117_757
*772 FILLER_117_766
*773 FILLER_117_778
*774 FILLER_117_788
*775 FILLER_117_800
*776 FILLER_117_81
*777 FILLER_117_818
*778 FILLER_117_830
*779 FILLER_117_838
*780 FILLER_117_841
*781 FILLER_117_85
*782 FILLER_117_853
*783 FILLER_117_865
*784 FILLER_117_869
*785 FILLER_117_881
*786 FILLER_117_893
*787 FILLER_117_897
*788 FILLER_117_909
*789 FILLER_117_921
*790 FILLER_117_927
*791 FILLER_117_935
*792 FILLER_117_939
*793 FILLER_117_951
*794 FILLER_117_953
*795 FILLER_117_965
*796 FILLER_117_97
*797 FILLER_117_977
*798 FILLER_117_981
*799 FILLER_117_989
*800 FILLER_117_999
*801 FILLER_118_1005
*802 FILLER_118_1017
*803 FILLER_118_1029
*804 FILLER_118_1035
*805 FILLER_118_1037
*806 FILLER_118_1049
*807 FILLER_118_1061
*808 FILLER_118_1073
*809 FILLER_118_1085
*810 FILLER_118_109
*811 FILLER_118_1091
*812 FILLER_118_1093
*813 FILLER_118_1105
*814 FILLER_118_1117
*815 FILLER_118_1129
*816 FILLER_118_1141
*817 FILLER_118_1147
*818 FILLER_118_1149
*819 FILLER_118_1161
*820 FILLER_118_1173
*821 FILLER_118_1185
*822 FILLER_118_1189
*823 FILLER_118_121
*824 FILLER_118_133
*825 FILLER_118_139
*826 FILLER_118_141
*827 FILLER_118_15
*828 FILLER_118_153
*829 FILLER_118_165
*830 FILLER_118_177
*831 FILLER_118_189
*832 FILLER_118_195
*833 FILLER_118_197
*834 FILLER_118_209
*835 FILLER_118_221
*836 FILLER_118_233
*837 FILLER_118_245
*838 FILLER_118_251
*839 FILLER_118_253
*840 FILLER_118_265
*841 FILLER_118_27
*842 FILLER_118_277
*843 FILLER_118_289
*844 FILLER_118_29
*845 FILLER_118_3
*846 FILLER_118_301
*847 FILLER_118_307
*848 FILLER_118_309
*849 FILLER_118_321
*850 FILLER_118_333
*851 FILLER_118_345
*852 FILLER_118_357
*853 FILLER_118_363
*854 FILLER_118_365
*855 FILLER_118_377
*856 FILLER_118_389
*857 FILLER_118_401
*858 FILLER_118_41
*859 FILLER_118_413
*860 FILLER_118_419
*861 FILLER_118_421
*862 FILLER_118_433
*863 FILLER_118_445
*864 FILLER_118_457
*865 FILLER_118_469
*866 FILLER_118_475
*867 FILLER_118_477
*868 FILLER_118_489
*869 FILLER_118_501
*870 FILLER_118_505
*871 FILLER_118_517
*872 FILLER_118_527
*873 FILLER_118_53
*874 FILLER_118_531
*875 FILLER_118_533
*876 FILLER_118_545
*877 FILLER_118_549
*878 FILLER_118_572
*879 FILLER_118_584
*880 FILLER_118_589
*881 FILLER_118_592
*882 FILLER_118_604
*883 FILLER_118_616
*884 FILLER_118_628
*885 FILLER_118_634
*886 FILLER_118_637
*887 FILLER_118_643
*888 FILLER_118_645
*889 FILLER_118_65
*890 FILLER_118_675
*891 FILLER_118_687
*892 FILLER_118_699
*893 FILLER_118_701
*894 FILLER_118_713
*895 FILLER_118_725
*896 FILLER_118_737
*897 FILLER_118_745
*898 FILLER_118_749
*899 FILLER_118_755
*900 FILLER_118_757
*901 FILLER_118_765
*902 FILLER_118_77
*903 FILLER_118_790
*904 FILLER_118_802
*905 FILLER_118_810
*906 FILLER_118_813
*907 FILLER_118_825
*908 FILLER_118_83
*909 FILLER_118_837
*910 FILLER_118_849
*911 FILLER_118_85
*912 FILLER_118_861
*913 FILLER_118_867
*914 FILLER_118_869
*915 FILLER_118_881
*916 FILLER_118_893
*917 FILLER_118_905
*918 FILLER_118_917
*919 FILLER_118_923
*920 FILLER_118_925
*921 FILLER_118_937
*922 FILLER_118_949
*923 FILLER_118_961
*924 FILLER_118_97
*925 FILLER_118_973
*926 FILLER_118_979
*927 FILLER_118_981
*928 FILLER_118_993
*929 FILLER_119_1001
*930 FILLER_119_1007
*931 FILLER_119_1009
*932 FILLER_119_1021
*933 FILLER_119_1033
*934 FILLER_119_1045
*935 FILLER_119_105
*936 FILLER_119_1057
*937 FILLER_119_1063
*938 FILLER_119_1065
*939 FILLER_119_1077
*940 FILLER_119_1089
*941 FILLER_119_1101
*942 FILLER_119_111
*943 FILLER_119_1113
*944 FILLER_119_1119
*945 FILLER_119_1121
*946 FILLER_119_113
*947 FILLER_119_1133
*948 FILLER_119_1145
*949 FILLER_119_1157
*950 FILLER_119_1169
*951 FILLER_119_1175
*952 FILLER_119_1177
*953 FILLER_119_1189
*954 FILLER_119_125
*955 FILLER_119_137
*956 FILLER_119_149
*957 FILLER_119_15
*958 FILLER_119_161
*959 FILLER_119_167
*960 FILLER_119_169
*961 FILLER_119_181
*962 FILLER_119_193
*963 FILLER_119_205
*964 FILLER_119_217
*965 FILLER_119_223
*966 FILLER_119_225
*967 FILLER_119_237
*968 FILLER_119_249
*969 FILLER_119_261
*970 FILLER_119_27
*971 FILLER_119_273
*972 FILLER_119_279
*973 FILLER_119_281
*974 FILLER_119_293
*975 FILLER_119_3
*976 FILLER_119_305
*977 FILLER_119_317
*978 FILLER_119_329
*979 FILLER_119_335
*980 FILLER_119_337
*981 FILLER_119_349
*982 FILLER_119_361
*983 FILLER_119_373
*984 FILLER_119_385
*985 FILLER_119_39
*986 FILLER_119_391
*987 FILLER_119_393
*988 FILLER_119_405
*989 FILLER_119_417
*990 FILLER_119_429
*991 FILLER_119_441
*992 FILLER_119_447
*993 FILLER_119_449
*994 FILLER_119_455
*995 FILLER_119_480
*996 FILLER_119_503
*997 FILLER_119_51
*998 FILLER_119_527
*999 FILLER_119_55
*1000 FILLER_119_552
*1001 FILLER_119_561
*1002 FILLER_119_569
*1003 FILLER_119_57
*1004 FILLER_119_590
*1005 FILLER_119_613
*1006 FILLER_119_657
*1007 FILLER_119_669
*1008 FILLER_119_673
*1009 FILLER_119_69
*1010 FILLER_119_697
*1011 FILLER_119_721
*1012 FILLER_119_725
*1013 FILLER_119_769
*1014 FILLER_119_781
*1015 FILLER_119_785
*1016 FILLER_119_793
*1017 FILLER_119_81
*1018 FILLER_119_818
*1019 FILLER_119_830
*1020 FILLER_119_838
*1021 FILLER_119_841
*1022 FILLER_119_853
*1023 FILLER_119_865
*1024 FILLER_119_877
*1025 FILLER_119_889
*1026 FILLER_119_895
*1027 FILLER_119_897
*1028 FILLER_119_909
*1029 FILLER_119_921
*1030 FILLER_119_93
*1031 FILLER_119_933
*1032 FILLER_119_945
*1033 FILLER_119_951
*1034 FILLER_119_953
*1035 FILLER_119_965
*1036 FILLER_119_977
*1037 FILLER_119_989
*1038 FILLER_11_1122
*1039 FILLER_11_1134
*1040 FILLER_11_1146
*1041 FILLER_11_1158
*1042 FILLER_11_1170
*1043 FILLER_11_1174
*1044 FILLER_11_1176
*1045 FILLER_11_1188
*1046 FILLER_11_15
*1047 FILLER_11_27
*1048 FILLER_11_3
*1049 FILLER_11_39
*1050 FILLER_11_51
*1051 FILLER_11_55
*1052 FILLER_11_57
*1053 FILLER_11_69
*1054 FILLER_120_1005
*1055 FILLER_120_1017
*1056 FILLER_120_1029
*1057 FILLER_120_1035
*1058 FILLER_120_1037
*1059 FILLER_120_1049
*1060 FILLER_120_1061
*1061 FILLER_120_1073
*1062 FILLER_120_1085
*1063 FILLER_120_109
*1064 FILLER_120_1091
*1065 FILLER_120_1093
*1066 FILLER_120_1105
*1067 FILLER_120_1117
*1068 FILLER_120_1129
*1069 FILLER_120_1141
*1070 FILLER_120_1147
*1071 FILLER_120_1149
*1072 FILLER_120_1161
*1073 FILLER_120_1173
*1074 FILLER_120_1185
*1075 FILLER_120_1189
*1076 FILLER_120_121
*1077 FILLER_120_133
*1078 FILLER_120_139
*1079 FILLER_120_141
*1080 FILLER_120_15
*1081 FILLER_120_153
*1082 FILLER_120_165
*1083 FILLER_120_177
*1084 FILLER_120_189
*1085 FILLER_120_195
*1086 FILLER_120_197
*1087 FILLER_120_209
*1088 FILLER_120_221
*1089 FILLER_120_233
*1090 FILLER_120_245
*1091 FILLER_120_251
*1092 FILLER_120_253
*1093 FILLER_120_265
*1094 FILLER_120_27
*1095 FILLER_120_277
*1096 FILLER_120_289
*1097 FILLER_120_29
*1098 FILLER_120_3
*1099 FILLER_120_301
*1100 FILLER_120_307
*1101 FILLER_120_309
*1102 FILLER_120_321
*1103 FILLER_120_333
*1104 FILLER_120_345
*1105 FILLER_120_357
*1106 FILLER_120_363
*1107 FILLER_120_365
*1108 FILLER_120_377
*1109 FILLER_120_389
*1110 FILLER_120_401
*1111 FILLER_120_41
*1112 FILLER_120_413
*1113 FILLER_120_419
*1114 FILLER_120_421
*1115 FILLER_120_433
*1116 FILLER_120_445
*1117 FILLER_120_457
*1118 FILLER_120_469
*1119 FILLER_120_475
*1120 FILLER_120_477
*1121 FILLER_120_489
*1122 FILLER_120_501
*1123 FILLER_120_513
*1124 FILLER_120_525
*1125 FILLER_120_53
*1126 FILLER_120_531
*1127 FILLER_120_533
*1128 FILLER_120_545
*1129 FILLER_120_557
*1130 FILLER_120_569
*1131 FILLER_120_581
*1132 FILLER_120_587
*1133 FILLER_120_589
*1134 FILLER_120_601
*1135 FILLER_120_613
*1136 FILLER_120_625
*1137 FILLER_120_637
*1138 FILLER_120_643
*1139 FILLER_120_645
*1140 FILLER_120_65
*1141 FILLER_120_657
*1142 FILLER_120_669
*1143 FILLER_120_681
*1144 FILLER_120_693
*1145 FILLER_120_699
*1146 FILLER_120_701
*1147 FILLER_120_713
*1148 FILLER_120_725
*1149 FILLER_120_737
*1150 FILLER_120_749
*1151 FILLER_120_755
*1152 FILLER_120_757
*1153 FILLER_120_769
*1154 FILLER_120_77
*1155 FILLER_120_781
*1156 FILLER_120_793
*1157 FILLER_120_805
*1158 FILLER_120_811
*1159 FILLER_120_813
*1160 FILLER_120_825
*1161 FILLER_120_83
*1162 FILLER_120_837
*1163 FILLER_120_849
*1164 FILLER_120_85
*1165 FILLER_120_861
*1166 FILLER_120_867
*1167 FILLER_120_869
*1168 FILLER_120_881
*1169 FILLER_120_893
*1170 FILLER_120_905
*1171 FILLER_120_917
*1172 FILLER_120_923
*1173 FILLER_120_925
*1174 FILLER_120_937
*1175 FILLER_120_949
*1176 FILLER_120_961
*1177 FILLER_120_97
*1178 FILLER_120_973
*1179 FILLER_120_979
*1180 FILLER_120_981
*1181 FILLER_120_993
*1182 FILLER_121_1001
*1183 FILLER_121_1007
*1184 FILLER_121_1009
*1185 FILLER_121_1021
*1186 FILLER_121_1033
*1187 FILLER_121_1045
*1188 FILLER_121_105
*1189 FILLER_121_1057
*1190 FILLER_121_1063
*1191 FILLER_121_1065
*1192 FILLER_121_1077
*1193 FILLER_121_1089
*1194 FILLER_121_1101
*1195 FILLER_121_111
*1196 FILLER_121_1113
*1197 FILLER_121_1119
*1198 FILLER_121_1121
*1199 FILLER_121_113
*1200 FILLER_121_1133
*1201 FILLER_121_1145
*1202 FILLER_121_1157
*1203 FILLER_121_1169
*1204 FILLER_121_1175
*1205 FILLER_121_1177
*1206 FILLER_121_1189
*1207 FILLER_121_125
*1208 FILLER_121_137
*1209 FILLER_121_149
*1210 FILLER_121_15
*1211 FILLER_121_161
*1212 FILLER_121_167
*1213 FILLER_121_169
*1214 FILLER_121_181
*1215 FILLER_121_193
*1216 FILLER_121_205
*1217 FILLER_121_217
*1218 FILLER_121_223
*1219 FILLER_121_225
*1220 FILLER_121_237
*1221 FILLER_121_249
*1222 FILLER_121_261
*1223 FILLER_121_27
*1224 FILLER_121_273
*1225 FILLER_121_279
*1226 FILLER_121_281
*1227 FILLER_121_293
*1228 FILLER_121_3
*1229 FILLER_121_305
*1230 FILLER_121_317
*1231 FILLER_121_329
*1232 FILLER_121_335
*1233 FILLER_121_337
*1234 FILLER_121_349
*1235 FILLER_121_361
*1236 FILLER_121_373
*1237 FILLER_121_385
*1238 FILLER_121_39
*1239 FILLER_121_391
*1240 FILLER_121_393
*1241 FILLER_121_405
*1242 FILLER_121_417
*1243 FILLER_121_429
*1244 FILLER_121_441
*1245 FILLER_121_447
*1246 FILLER_121_449
*1247 FILLER_121_461
*1248 FILLER_121_473
*1249 FILLER_121_485
*1250 FILLER_121_497
*1251 FILLER_121_503
*1252 FILLER_121_505
*1253 FILLER_121_51
*1254 FILLER_121_517
*1255 FILLER_121_529
*1256 FILLER_121_541
*1257 FILLER_121_55
*1258 FILLER_121_553
*1259 FILLER_121_559
*1260 FILLER_121_561
*1261 FILLER_121_57
*1262 FILLER_121_573
*1263 FILLER_121_585
*1264 FILLER_121_597
*1265 FILLER_121_609
*1266 FILLER_121_615
*1267 FILLER_121_617
*1268 FILLER_121_629
*1269 FILLER_121_641
*1270 FILLER_121_653
*1271 FILLER_121_665
*1272 FILLER_121_671
*1273 FILLER_121_673
*1274 FILLER_121_685
*1275 FILLER_121_69
*1276 FILLER_121_697
*1277 FILLER_121_709
*1278 FILLER_121_721
*1279 FILLER_121_727
*1280 FILLER_121_729
*1281 FILLER_121_741
*1282 FILLER_121_753
*1283 FILLER_121_765
*1284 FILLER_121_777
*1285 FILLER_121_783
*1286 FILLER_121_785
*1287 FILLER_121_797
*1288 FILLER_121_809
*1289 FILLER_121_81
*1290 FILLER_121_821
*1291 FILLER_121_833
*1292 FILLER_121_839
*1293 FILLER_121_841
*1294 FILLER_121_853
*1295 FILLER_121_865
*1296 FILLER_121_877
*1297 FILLER_121_889
*1298 FILLER_121_895
*1299 FILLER_121_897
*1300 FILLER_121_909
*1301 FILLER_121_921
*1302 FILLER_121_93
*1303 FILLER_121_933
*1304 FILLER_121_945
*1305 FILLER_121_951
*1306 FILLER_121_953
*1307 FILLER_121_965
*1308 FILLER_121_977
*1309 FILLER_121_989
*1310 FILLER_122_1005
*1311 FILLER_122_1017
*1312 FILLER_122_1029
*1313 FILLER_122_1035
*1314 FILLER_122_1037
*1315 FILLER_122_1049
*1316 FILLER_122_1061
*1317 FILLER_122_1073
*1318 FILLER_122_1085
*1319 FILLER_122_109
*1320 FILLER_122_1091
*1321 FILLER_122_1093
*1322 FILLER_122_1105
*1323 FILLER_122_1117
*1324 FILLER_122_1129
*1325 FILLER_122_1141
*1326 FILLER_122_1147
*1327 FILLER_122_1149
*1328 FILLER_122_1161
*1329 FILLER_122_1173
*1330 FILLER_122_1185
*1331 FILLER_122_1189
*1332 FILLER_122_121
*1333 FILLER_122_133
*1334 FILLER_122_139
*1335 FILLER_122_141
*1336 FILLER_122_15
*1337 FILLER_122_153
*1338 FILLER_122_165
*1339 FILLER_122_177
*1340 FILLER_122_189
*1341 FILLER_122_195
*1342 FILLER_122_197
*1343 FILLER_122_209
*1344 FILLER_122_221
*1345 FILLER_122_233
*1346 FILLER_122_245
*1347 FILLER_122_251
*1348 FILLER_122_253
*1349 FILLER_122_265
*1350 FILLER_122_27
*1351 FILLER_122_277
*1352 FILLER_122_289
*1353 FILLER_122_29
*1354 FILLER_122_3
*1355 FILLER_122_301
*1356 FILLER_122_307
*1357 FILLER_122_309
*1358 FILLER_122_321
*1359 FILLER_122_333
*1360 FILLER_122_345
*1361 FILLER_122_357
*1362 FILLER_122_363
*1363 FILLER_122_365
*1364 FILLER_122_377
*1365 FILLER_122_389
*1366 FILLER_122_401
*1367 FILLER_122_41
*1368 FILLER_122_413
*1369 FILLER_122_419
*1370 FILLER_122_421
*1371 FILLER_122_433
*1372 FILLER_122_445
*1373 FILLER_122_457
*1374 FILLER_122_469
*1375 FILLER_122_475
*1376 FILLER_122_477
*1377 FILLER_122_489
*1378 FILLER_122_501
*1379 FILLER_122_513
*1380 FILLER_122_525
*1381 FILLER_122_53
*1382 FILLER_122_531
*1383 FILLER_122_533
*1384 FILLER_122_545
*1385 FILLER_122_557
*1386 FILLER_122_569
*1387 FILLER_122_581
*1388 FILLER_122_587
*1389 FILLER_122_589
*1390 FILLER_122_601
*1391 FILLER_122_613
*1392 FILLER_122_625
*1393 FILLER_122_637
*1394 FILLER_122_643
*1395 FILLER_122_645
*1396 FILLER_122_65
*1397 FILLER_122_657
*1398 FILLER_122_669
*1399 FILLER_122_681
*1400 FILLER_122_693
*1401 FILLER_122_699
*1402 FILLER_122_701
*1403 FILLER_122_713
*1404 FILLER_122_725
*1405 FILLER_122_737
*1406 FILLER_122_749
*1407 FILLER_122_755
*1408 FILLER_122_757
*1409 FILLER_122_769
*1410 FILLER_122_77
*1411 FILLER_122_781
*1412 FILLER_122_793
*1413 FILLER_122_805
*1414 FILLER_122_811
*1415 FILLER_122_813
*1416 FILLER_122_825
*1417 FILLER_122_83
*1418 FILLER_122_837
*1419 FILLER_122_849
*1420 FILLER_122_85
*1421 FILLER_122_861
*1422 FILLER_122_867
*1423 FILLER_122_869
*1424 FILLER_122_881
*1425 FILLER_122_893
*1426 FILLER_122_905
*1427 FILLER_122_917
*1428 FILLER_122_923
*1429 FILLER_122_925
*1430 FILLER_122_937
*1431 FILLER_122_949
*1432 FILLER_122_961
*1433 FILLER_122_97
*1434 FILLER_122_973
*1435 FILLER_122_979
*1436 FILLER_122_981
*1437 FILLER_122_993
*1438 FILLER_123_1001
*1439 FILLER_123_1007
*1440 FILLER_123_1009
*1441 FILLER_123_1021
*1442 FILLER_123_1033
*1443 FILLER_123_1045
*1444 FILLER_123_105
*1445 FILLER_123_1057
*1446 FILLER_123_1063
*1447 FILLER_123_1065
*1448 FILLER_123_1077
*1449 FILLER_123_1089
*1450 FILLER_123_1101
*1451 FILLER_123_111
*1452 FILLER_123_1113
*1453 FILLER_123_1119
*1454 FILLER_123_1121
*1455 FILLER_123_113
*1456 FILLER_123_1133
*1457 FILLER_123_1145
*1458 FILLER_123_1157
*1459 FILLER_123_1169
*1460 FILLER_123_1175
*1461 FILLER_123_1177
*1462 FILLER_123_1189
*1463 FILLER_123_125
*1464 FILLER_123_137
*1465 FILLER_123_149
*1466 FILLER_123_15
*1467 FILLER_123_161
*1468 FILLER_123_167
*1469 FILLER_123_169
*1470 FILLER_123_181
*1471 FILLER_123_193
*1472 FILLER_123_205
*1473 FILLER_123_217
*1474 FILLER_123_223
*1475 FILLER_123_225
*1476 FILLER_123_237
*1477 FILLER_123_249
*1478 FILLER_123_261
*1479 FILLER_123_27
*1480 FILLER_123_273
*1481 FILLER_123_279
*1482 FILLER_123_281
*1483 FILLER_123_293
*1484 FILLER_123_3
*1485 FILLER_123_305
*1486 FILLER_123_317
*1487 FILLER_123_329
*1488 FILLER_123_335
*1489 FILLER_123_337
*1490 FILLER_123_349
*1491 FILLER_123_361
*1492 FILLER_123_373
*1493 FILLER_123_385
*1494 FILLER_123_39
*1495 FILLER_123_391
*1496 FILLER_123_393
*1497 FILLER_123_405
*1498 FILLER_123_417
*1499 FILLER_123_429
*1500 FILLER_123_441
*1501 FILLER_123_447
*1502 FILLER_123_449
*1503 FILLER_123_461
*1504 FILLER_123_473
*1505 FILLER_123_485
*1506 FILLER_123_497
*1507 FILLER_123_503
*1508 FILLER_123_505