*SPEF "ieee 1481-1999"
*DESIGN "counter"
*DATE "13:15:55 Sunday March 02, 2025"
*VENDOR "The OpenROAD Project"
*PROGRAM "OpenROAD"
*VERSION "edf00dff99f6c40d67a30c0e22a8191c5d2ed9d6"
*DESIGN_FLOW "NAME_SCOPE LOCAL" "PIN_CAP NONE"
*DIVIDER /
*DELIMITER :
*BUS_DELIMITER []
*T_UNIT 1 NS
*C_UNIT 1 PF
*R_UNIT 1 OHM
*L_UNIT 1 HENRY

*NAME_MAP
*3 clk
*4 rst
*5 sine_out[0]
*6 sine_out[10]
*7 sine_out[11]
*8 sine_out[12]
*9 sine_out[13]
*10 sine_out[14]
*11 sine_out[15]
*12 sine_out[1]
*13 sine_out[2]
*14 sine_out[3]
*15 sine_out[4]
*16 sine_out[5]
*17 sine_out[6]
*18 sine_out[7]
*19 sine_out[8]
*20 sine_out[9]
*21 _000_
*22 _001_
*23 _002_
*24 _003_
*25 _004_
*26 _005_
*27 _006_
*28 _007_
*29 _008_
*30 _009_
*31 _010_
*32 _011_
*33 _012_
*34 _013_
*35 _014_
*36 _015_
*37 _016_
*38 _017_
*39 _018_
*40 _019_
*41 _020_
*42 _021_
*43 _022_
*44 _023_
*45 _024_
*46 _025_
*47 _026_
*48 _027_
*49 _028_
*50 _029_
*51 _030_
*52 _031_
*53 _032_
*54 _033_
*55 _034_
*56 _035_
*57 _036_
*58 _037_
*59 _038_
*60 _039_
*61 _040_
*62 _041_
*63 _042_
*64 _043_
*65 _044_
*66 _045_
*67 _046_
*68 _047_
*69 _048_
*70 _049_
*71 _050_
*72 _051_
*73 _052_
*74 _053_
*75 _054_
*76 _055_
*77 _056_
*78 _057_
*79 _058_
*80 _059_
*81 _060_
*82 _061_
*83 _062_
*84 _063_
*85 _064_
*86 _065_
*87 _066_
*88 _067_
*89 _068_
*90 _069_
*91 _070_
*92 _071_
*93 _072_
*94 _073_
*95 _074_
*96 _075_
*97 _076_
*98 _077_
*99 _078_
*100 _079_
*101 _080_
*102 _081_
*103 _082_
*104 _083_
*105 _084_
*106 _085_
*107 _086_
*108 _087_
*109 _088_
*110 _089_
*111 _090_
*112 _091_
*113 _092_
*114 _093_
*115 _094_
*116 _095_
*117 _096_
*118 _097_
*119 _098_
*120 _099_
*121 _100_
*122 _101_
*123 _102_
*124 _103_
*125 _104_
*126 _105_
*127 _106_
*128 _107_
*129 _108_
*130 _109_
*131 _110_
*132 _111_
*133 _112_
*134 _113_
*135 _114_
*136 _115_
*137 _116_
*138 _117_
*139 _118_
*140 _119_
*141 _120_
*142 _121_
*143 _122_
*144 _123_
*145 _124_
*146 _125_
*147 _126_
*148 _127_
*149 _128_
*150 _129_
*151 _130_
*152 _131_
*153 _132_
*154 _133_
*155 _134_
*156 _135_
*157 _136_
*158 _137_
*159 _138_
*160 _139_
*161 _140_
*162 _141_
*163 _142_
*164 _143_
*165 _144_
*166 _145_
*167 _146_
*168 _147_
*169 _148_
*170 _149_
*171 _150_
*172 _151_
*173 _152_
*174 _153_
*175 _154_
*176 _155_
*177 _156_
*178 _157_
*179 _158_
*180 _159_
*181 _160_
*182 _161_
*183 _162_
*184 _163_
*185 _164_
*186 _165_
*187 _166_
*188 _167_
*189 _168_
*190 _169_
*191 _170_
*192 _171_
*193 _172_
*194 _173_
*195 _174_
*196 _175_
*197 _176_
*198 _177_
*199 _178_
*200 _179_
*201 _180_
*202 _181_
*203 _182_
*204 _183_
*205 _184_
*206 _185_
*207 _186_
*208 _187_
*209 _188_
*210 _189_
*211 _190_
*212 _191_
*213 _192_
*214 _193_
*215 _194_
*216 _195_
*217 _196_
*218 _197_
*219 _198_
*220 _199_
*221 _200_
*222 _201_
*223 _202_
*224 _203_
*225 _204_
*226 _205_
*227 _206_
*228 _207_
*229 _208_
*230 _209_
*231 _210_
*232 _211_
*233 _212_
*234 _213_
*235 _214_
*236 _215_
*237 _216_
*238 _217_
*239 _218_
*240 _219_
*241 _220_
*242 _221_
*243 _222_
*244 _223_
*245 _224_
*246 _225_
*247 _226_
*248 _227_
*249 _228_
*250 _229_
*251 _230_
*252 _231_
*253 _232_
*254 _233_
*255 _234_
*256 _235_
*257 _236_
*258 _237_
*259 _238_
*260 _239_
*261 _240_
*262 _241_
*263 _242_
*264 _243_
*265 _244_
*266 _245_
*267 _246_
*268 _247_
*269 _248_
*270 _249_
*271 _250_
*272 _251_
*273 _252_
*274 _253_
*275 _254_
*276 _255_
*277 _256_
*278 _257_
*279 _258_
*280 _259_
*281 _260_
*282 _261_
*283 _262_
*284 _263_
*285 _264_
*286 _265_
*287 _266_
*288 _267_
*289 _268_
*290 _269_
*291 _270_
*292 _271_
*293 _272_
*294 _273_
*295 _274_
*296 _275_
*297 _276_
*298 _277_
*299 _278_
*300 _279_
*301 _280_
*302 _281_
*303 _282_
*304 _283_
*305 _284_
*306 _285_
*307 _286_
*308 _287_
*309 _288_
*310 _289_
*311 _290_
*312 _291_
*313 _292_
*314 _293_
*315 _294_
*316 _295_
*317 _296_
*318 _297_
*319 _298_
*320 _299_
*321 _300_
*322 _301_
*323 _302_
*324 _303_
*325 _304_
*326 _305_
*327 _306_
*328 _307_
*329 _308_
*330 _309_
*331 _310_
*332 _311_
*333 _312_
*334 _313_
*335 _314_
*336 _315_
*337 _316_
*338 _317_
*339 _318_
*340 _319_
*341 _320_
*342 _321_
*343 _322_
*344 _323_
*345 _324_
*346 _325_
*347 _326_
*348 _327_
*349 _328_
*350 _329_
*351 _330_
*352 _331_
*353 _332_
*354 _333_
*355 _334_
*356 _335_
*357 _336_
*358 _337_
*359 _338_
*360 _339_
*361 _340_
*362 _341_
*363 _342_
*364 _343_
*365 _344_
*366 _345_
*367 _346_
*368 _347_
*369 _348_
*370 _349_
*371 _350_
*372 _351_
*373 _352_
*374 _353_
*375 _354_
*376 _355_
*377 _356_
*378 _357_
*379 _358_
*380 _359_
*381 _360_
*382 _361_
*383 _362_
*384 _363_
*385 _364_
*386 _365_
*387 _366_
*388 _367_
*389 _368_
*390 _369_
*391 _370_
*392 _371_
*393 _372_
*394 _373_
*395 _374_
*396 _375_
*397 _376_
*398 _377_
*399 _378_
*400 _379_
*401 _380_
*402 _381_
*403 _382_
*404 _383_
*405 _384_
*406 _385_
*407 _386_
*408 clknet_0_clk
*409 clknet_1_0__leaf_clk
*410 clknet_1_1__leaf_clk
*411 net1
*412 net10
*413 net11
*414 net12
*415 net13
*416 net14
*417 net15
*418 net16
*419 net17
*420 net18
*421 net19
*422 net2
*423 net20
*424 net21
*425 net22
*426 net23
*427 net24
*428 net25
*429 net26
*430 net27
*431 net28
*432 net29
*433 net3
*434 net30
*435 net31
*436 net32
*437 net33
*438 net34
*439 net35
*440 net36
*441 net37
*442 net38
*443 net39
*444 net4
*445 net40
*446 net41
*447 net42
*448 net43
*449 net44
*450 net45
*451 net46
*452 net47
*453 net48
*454 net49
*455 net5
*456 net50
*457 net51
*458 net52
*459 net53
*460 net54
*461 net55
*462 net56
*463 net57
*464 net58
*465 net59
*466 net6
*467 net60
*468 net61
*469 net62
*470 net63
*471 net64
*472 net65
*473 net66
*474 net67
*475 net68
*476 net69
*477 net7
*478 net70
*479 net71
*480 net72
*481 net73
*482 net74
*483 net75
*484 net76
*485 net77
*486 net78
*487 net79
*488 net8
*489 net9
*490 tcout\[0\]
*491 tcout\[1\]
*492 tcout\[2\]
*493 tcout\[3\]
*494 tcout\[4\]
*495 tcout\[5\]
*496 tcout\[6\]
*497 tcout\[7\]
*498 FILLER_0_103
*499 FILLER_0_111
*500 FILLER_0_113
*501 FILLER_0_119
*502 FILLER_0_131
*503 FILLER_0_139
*504 FILLER_0_141
*505 FILLER_0_15
*506 FILLER_0_153
*507 FILLER_0_165
*508 FILLER_0_169
*509 FILLER_0_181
*510 FILLER_0_185
*511 FILLER_0_27
*512 FILLER_0_29
*513 FILLER_0_3
*514 FILLER_0_41
*515 FILLER_0_53
*516 FILLER_0_57
*517 FILLER_0_69
*518 FILLER_0_81
*519 FILLER_0_85
*520 FILLER_0_91
*521 FILLER_10_100
*522 FILLER_10_108
*523 FILLER_10_13
*524 FILLER_10_133
*525 FILLER_10_161
*526 FILLER_10_169
*527 FILLER_10_179
*528 FILLER_10_25
*529 FILLER_10_29
*530 FILLER_10_3
*531 FILLER_10_40
*532 FILLER_10_56
*533 FILLER_10_72
*534 FILLER_10_93
*535 FILLER_11_104
*536 FILLER_11_11
*537 FILLER_11_121
*538 FILLER_11_129
*539 FILLER_11_137
*540 FILLER_11_141
*541 FILLER_11_145
*542 FILLER_11_158
*543 FILLER_11_185
*544 FILLER_11_23
*545 FILLER_11_31
*546 FILLER_11_43
*547 FILLER_11_55
*548 FILLER_11_80
*549 FILLER_12_106
*550 FILLER_12_118
*551 FILLER_12_130
*552 FILLER_12_138
*553 FILLER_12_141
*554 FILLER_12_145
*555 FILLER_12_183
*556 FILLER_12_3
*557 FILLER_12_36
*558 FILLER_12_46
*559 FILLER_12_82
*560 FILLER_12_88
*561 FILLER_13_100
*562 FILLER_13_111
*563 FILLER_13_113
*564 FILLER_13_121
*565 FILLER_13_145
*566 FILLER_13_157
*567 FILLER_13_165
*568 FILLER_13_169
*569 FILLER_13_184
*570 FILLER_13_3
*571 FILLER_13_32
*572 FILLER_13_49
*573 FILLER_13_64
*574 FILLER_13_76
*575 FILLER_14_108
*576 FILLER_14_114
*577 FILLER_14_121
*578 FILLER_14_133
*579 FILLER_14_139
*580 FILLER_14_141
*581 FILLER_14_153
*582 FILLER_14_160
*583 FILLER_14_184
*584 FILLER_14_19
*585 FILLER_14_27
*586 FILLER_14_36
*587 FILLER_14_44
*588 FILLER_14_7
*589 FILLER_14_73
*590 FILLER_14_80
*591 FILLER_14_85
*592 FILLER_14_89
*593 FILLER_15_109
*594 FILLER_15_113
*595 FILLER_15_122
*596 FILLER_15_134
*597 FILLER_15_138
*598 FILLER_15_144
*599 FILLER_15_15
*600 FILLER_15_165
*601 FILLER_15_23
*602 FILLER_15_3
*603 FILLER_15_38
*604 FILLER_15_52
*605 FILLER_15_65
*606 FILLER_15_85
*607 FILLER_15_97
*608 FILLER_16_104
*609 FILLER_16_116
*610 FILLER_16_138
*611 FILLER_16_141
*612 FILLER_16_152
*613 FILLER_16_160
*614 FILLER_16_19
*615 FILLER_16_27
*616 FILLER_16_35
*617 FILLER_16_41
*618 FILLER_16_53
*619 FILLER_16_61
*620 FILLER_16_7
*621 FILLER_16_75
*622 FILLER_16_92
*623 FILLER_16_96
*624 FILLER_17_101
*625 FILLER_17_109
*626 FILLER_17_117
*627 FILLER_17_125
*628 FILLER_17_138
*629 FILLER_17_150
*630 FILLER_17_157
*631 FILLER_17_165
*632 FILLER_17_182
*633 FILLER_17_21
*634 FILLER_17_29
*635 FILLER_17_3
*636 FILLER_17_38
*637 FILLER_17_54
*638 FILLER_17_61
*639 FILLER_17_71
*640 FILLER_17_83
*641 FILLER_17_91
*642 FILLER_18_106
*643 FILLER_18_131
*644 FILLER_18_139
*645 FILLER_18_141
*646 FILLER_18_17
*647 FILLER_18_185
*648 FILLER_18_25
*649 FILLER_18_3
*650 FILLER_18_44
*651 FILLER_18_52
*652 FILLER_18_79
*653 FILLER_18_83
*654 FILLER_18_98
*655 FILLER_19_107
*656 FILLER_19_111
*657 FILLER_19_113
*658 FILLER_19_125
*659 FILLER_19_136
*660 FILLER_19_141
*661 FILLER_19_15
*662 FILLER_19_164
*663 FILLER_19_180
*664 FILLER_19_25
*665 FILLER_19_3
*666 FILLER_19_45
*667 FILLER_19_53
*668 FILLER_19_57
*669 FILLER_19_69
*670 FILLER_19_80
*671 FILLER_19_89
*672 FILLER_1_105
*673 FILLER_1_111
*674 FILLER_1_113
*675 FILLER_1_125
*676 FILLER_1_137
*677 FILLER_1_149
*678 FILLER_1_15
*679 FILLER_1_161
*680 FILLER_1_167
*681 FILLER_1_169
*682 FILLER_1_181
*683 FILLER_1_185
*684 FILLER_1_27
*685 FILLER_1_3
*686 FILLER_1_39
*687 FILLER_1_51
*688 FILLER_1_55
*689 FILLER_1_57
*690 FILLER_1_69
*691 FILLER_1_81
*692 FILLER_1_93
*693 FILLER_20_109
*694 FILLER_20_128
*695 FILLER_20_13
*696 FILLER_20_132
*697 FILLER_20_149
*698 FILLER_20_161
*699 FILLER_20_165
*700 FILLER_20_20
*701 FILLER_20_38
*702 FILLER_20_50
*703 FILLER_20_62
*704 FILLER_20_7
*705 FILLER_20_74
*706 FILLER_20_90
*707 FILLER_21_116
*708 FILLER_21_13
*709 FILLER_21_130
*710 FILLER_21_138
*711 FILLER_21_145
*712 FILLER_21_153
*713 FILLER_21_157
*714 FILLER_21_161
*715 FILLER_21_167
*716 FILLER_21_26
*717 FILLER_21_3
*718 FILLER_21_33
*719 FILLER_21_39
*720 FILLER_21_44
*721 FILLER_21_70
*722 FILLER_21_78
*723 FILLER_21_87
*724 FILLER_21_94
*725 FILLER_22_108
*726 FILLER_22_116
*727 FILLER_22_129
*728 FILLER_22_137
*729 FILLER_22_141
*730 FILLER_22_145
*731 FILLER_22_15
*732 FILLER_22_174
*733 FILLER_22_180
*734 FILLER_22_184
*735 FILLER_22_3
*736 FILLER_22_44
*737 FILLER_22_59
*738 FILLER_22_83
*739 FILLER_22_91
*740 FILLER_23_104
*741 FILLER_23_113
*742 FILLER_23_125
*743 FILLER_23_136
*744 FILLER_23_140
*745 FILLER_23_15
*746 FILLER_23_161
*747 FILLER_23_167
*748 FILLER_23_177
*749 FILLER_23_185
*750 FILLER_23_20
*751 FILLER_23_29
*752 FILLER_23_49
*753 FILLER_23_55
*754 FILLER_23_57
*755 FILLER_23_67
*756 FILLER_23_7
*757 FILLER_23_86
*758 FILLER_23_95
*759 FILLER_24_102
*760 FILLER_24_110
*761 FILLER_24_127
*762 FILLER_24_13
*763 FILLER_24_135
*764 FILLER_24_181
*765 FILLER_24_185
*766 FILLER_24_22
*767 FILLER_24_29
*768 FILLER_24_36
*769 FILLER_24_65
*770 FILLER_24_7
*771 FILLER_24_82
*772 FILLER_24_85
*773 FILLER_24_95
*774 FILLER_25_126
*775 FILLER_25_13
*776 FILLER_25_166
*777 FILLER_25_182
*778 FILLER_25_22
*779 FILLER_25_3
*780 FILLER_25_38
*781 FILLER_25_54
*782 FILLER_25_71
*783 FILLER_25_83
*784 FILLER_26_102
*785 FILLER_26_110
*786 FILLER_26_121
*787 FILLER_26_13
*788 FILLER_26_135
*789 FILLER_26_139
*790 FILLER_26_141
*791 FILLER_26_179
*792 FILLER_26_185
*793 FILLER_26_3
*794 FILLER_26_79
*795 FILLER_26_83
*796 FILLER_26_85
*797 FILLER_27_105
*798 FILLER_27_111
*799 FILLER_27_113
*800 FILLER_27_122
*801 FILLER_27_134
*802 FILLER_27_18
*803 FILLER_27_185
*804 FILLER_27_29
*805 FILLER_27_3
*806 FILLER_27_37
*807 FILLER_27_43
*808 FILLER_27_52
*809 FILLER_27_57
*810 FILLER_27_75
*811 FILLER_28_103
*812 FILLER_28_123
*813 FILLER_28_134
*814 FILLER_28_181
*815 FILLER_28_185
*816 FILLER_28_19
*817 FILLER_28_34
*818 FILLER_28_40
*819 FILLER_28_45
*820 FILLER_28_57
*821 FILLER_28_7
*822 FILLER_28_83
*823 FILLER_28_85
*824 FILLER_28_94
*825 FILLER_29_107
*826 FILLER_29_111
*827 FILLER_29_113
*828 FILLER_29_120
*829 FILLER_29_14
*830 FILLER_29_163
*831 FILLER_29_167
*832 FILLER_29_172
*833 FILLER_29_184
*834 FILLER_29_3
*835 FILLER_29_30
*836 FILLER_29_42
*837 FILLER_29_54
*838 FILLER_29_57
*839 FILLER_29_87
*840 FILLER_2_109
*841 FILLER_2_121
*842 FILLER_2_133
*843 FILLER_2_139
*844 FILLER_2_141
*845 FILLER_2_15
*846 FILLER_2_153
*847 FILLER_2_165
*848 FILLER_2_177
*849 FILLER_2_185
*850 FILLER_2_27
*851 FILLER_2_29
*852 FILLER_2_3
*853 FILLER_2_41
*854 FILLER_2_53
*855 FILLER_2_65
*856 FILLER_2_73
*857 FILLER_2_81
*858 FILLER_2_85
*859 FILLER_2_97
*860 FILLER_30_100
*861 FILLER_30_113
*862 FILLER_30_119
*863 FILLER_30_131
*864 FILLER_30_139
*865 FILLER_30_141
*866 FILLER_30_15
*867 FILLER_30_150
*868 FILLER_30_162
*869 FILLER_30_169
*870 FILLER_30_181
*871 FILLER_30_185
*872 FILLER_30_27
*873 FILLER_30_29
*874 FILLER_30_3
*875 FILLER_30_41
*876 FILLER_30_53
*877 FILLER_30_57
*878 FILLER_30_69
*879 FILLER_30_82
*880 FILLER_30_85
*881 FILLER_30_91
*882 FILLER_3_103
*883 FILLER_3_111
*884 FILLER_3_119
*885 FILLER_3_130
*886 FILLER_3_139
*887 FILLER_3_143
*888 FILLER_3_147
*889 FILLER_3_15
*890 FILLER_3_159
*891 FILLER_3_163
*892 FILLER_3_167
*893 FILLER_3_174
*894 FILLER_3_23
*895 FILLER_3_3
*896 FILLER_3_48
*897 FILLER_3_79
*898 FILLER_3_86
*899 FILLER_3_94
*900 FILLER_4_122
*901 FILLER_4_134
*902 FILLER_4_144
*903 FILLER_4_15
*904 FILLER_4_156
*905 FILLER_4_178
*906 FILLER_4_29
*907 FILLER_4_3
*908 FILLER_4_49
*909 FILLER_4_59
*910 FILLER_4_78
*911 FILLER_5_108
*912 FILLER_5_113
*913 FILLER_5_125
*914 FILLER_5_130
*915 FILLER_5_15
*916 FILLER_5_160
*917 FILLER_5_169
*918 FILLER_5_178
*919 FILLER_5_3
*920 FILLER_5_44
*921 FILLER_5_55
*922 FILLER_5_65
*923 FILLER_5_78
*924 FILLER_5_89
*925 FILLER_5_93
*926 FILLER_6_10
*927 FILLER_6_110
*928 FILLER_6_118
*929 FILLER_6_138
*930 FILLER_6_156
*931 FILLER_6_170
*932 FILLER_6_178
*933 FILLER_6_20
*934 FILLER_6_3
*935 FILLER_6_36
*936 FILLER_6_47
*937 FILLER_6_54
*938 FILLER_6_66
*939 FILLER_6_78
*940 FILLER_6_91
*941 FILLER_6_99
*942 FILLER_7_107
*943 FILLER_7_111
*944 FILLER_7_113
*945 FILLER_7_118
*946 FILLER_7_140
*947 FILLER_7_152
*948 FILLER_7_183
*949 FILLER_7_24
*950 FILLER_7_3
*951 FILLER_7_33
*952 FILLER_7_45
*953 FILLER_7_95
*954 FILLER_8_105
*955 FILLER_8_115
*956 FILLER_8_127
*957 FILLER_8_139
*958 FILLER_8_141
*959 FILLER_8_147
*960 FILLER_8_162
*961 FILLER_8_166
*962 FILLER_8_174
*963 FILLER_8_18
*964 FILLER_8_26
*965 FILLER_8_29
*966 FILLER_8_51
*967 FILLER_8_59
*968 FILLER_8_7
*969 FILLER_8_75
*970 FILLER_8_83
*971 FILLER_8_85
*972 FILLER_9_105
*973 FILLER_9_111
*974 FILLER_9_113
*975 FILLER_9_125
*976 FILLER_9_13
*977 FILLER_9_131
*978 FILLER_9_137
*979 FILLER_9_143
*980 FILLER_9_152
*981 FILLER_9_156
*982 FILLER_9_169
*983 FILLER_9_181
*984 FILLER_9_185
*985 FILLER_9_25
*986 FILLER_9_29
*987 FILLER_9_3
*988 FILLER_9_51
*989 FILLER_9_55
*990 FILLER_9_57
*991 FILLER_9_69
*992 FILLER_9_81
*993 FILLER_9_93
*994 FILLER_9_99
*995 PHY_EDGE_ROW_0_Left_31
*996 PHY_EDGE_ROW_0_Right_0
*997 PHY_EDGE_ROW_10_Left_41
*998 PHY_EDGE_ROW_10_Right_10
*999 PHY_EDGE_ROW_11_Left_42
*1000 PHY_EDGE_ROW_11_Right_11
*1001 PHY_EDGE_ROW_12_Left_43
*1002 PHY_EDGE_ROW_12_Right_12
*1003 PHY_EDGE_ROW_13_Left_44
*1004 PHY_EDGE_ROW_13_Right_13
*1005 PHY_EDGE_ROW_14_Left_45
*1006 PHY_EDGE_ROW_14_Right_14
*1007 PHY_EDGE_ROW_15_Left_46
*1008 PHY_EDGE_ROW_15_Right_15
*1009 PHY_EDGE_ROW_16_Left_47
*1010 PHY_EDGE_ROW_16_Right_16
*1011 PHY_EDGE_ROW_17_Left_48
*1012 PHY_EDGE_ROW_17_Right_17
*1013 PHY_EDGE_ROW_18_Left_49
*1014 PHY_EDGE_ROW_18_Right_18
*1015 PHY_EDGE_ROW_19_Left_50
*1016 PHY_EDGE_ROW_19_Right_19
*1017 PHY_EDGE_ROW_1_Left_32
*1018 PHY_EDGE_ROW_1_Right_1
*1019 PHY_EDGE_ROW_20_Left_51
*1020 PHY_EDGE_ROW_20_Right_20
*1021 PHY_EDGE_ROW_21_Left_52
*1022 PHY_EDGE_ROW_21_Right_21
*1023 PHY_EDGE_ROW_22_Left_53
*1024 PHY_EDGE_ROW_22_Right_22
*1025 PHY_EDGE_ROW_23_Left_54
*1026 PHY_EDGE_ROW_23_Right_23
*1027 PHY_EDGE_ROW_24_Left_55
*1028 PHY_EDGE_ROW_24_Right_24
*1029 PHY_EDGE_ROW_25_Left_56
*1030 PHY_EDGE_ROW_25_Right_25
*1031 PHY_EDGE_ROW_26_Left_57
*1032 PHY_EDGE_ROW_26_Right_26
*1033 PHY_EDGE_ROW_27_Left_58
*1034 PHY_EDGE_ROW_27_Right_27
*1035 PHY_EDGE_ROW_28_Left_59
*1036 PHY_EDGE_ROW_28_Right_28
*1037 PHY_EDGE_ROW_29_Left_60
*1038 PHY_EDGE_ROW_29_Right_29
*1039 PHY_EDGE_ROW_2_Left_33
*1040 PHY_EDGE_ROW_2_Right_2
*1041 PHY_EDGE_ROW_30_Left_61
*1042 PHY_EDGE_ROW_30_Right_30
*1043 PHY_EDGE_ROW_3_Left_34
*1044 PHY_EDGE_ROW_3_Right_3
*1045 PHY_EDGE_ROW_4_Left_35
*1046 PHY_EDGE_ROW_4_Right_4
*1047 PHY_EDGE_ROW_5_Left_36
*1048 PHY_EDGE_ROW_5_Right_5
*1049 PHY_EDGE_ROW_6_Left_37
*1050 PHY_EDGE_ROW_6_Right_6
*1051 PHY_EDGE_ROW_7_Left_38
*1052 PHY_EDGE_ROW_7_Right_7
*1053 PHY_EDGE_ROW_8_Left_39
*1054 PHY_EDGE_ROW_8_Right_8
*1055 PHY_EDGE_ROW_9_Left_40
*1056 PHY_EDGE_ROW_9_Right_9
*1057 TAP_TAPCELL_ROW_0_62
*1058 TAP_TAPCELL_ROW_0_63
*1059 TAP_TAPCELL_ROW_0_64
*1060 TAP_TAPCELL_ROW_0_65
*1061 TAP_TAPCELL_ROW_0_66
*1062 TAP_TAPCELL_ROW_0_67
*1063 TAP_TAPCELL_ROW_10_95
*1064 TAP_TAPCELL_ROW_10_96
*1065 TAP_TAPCELL_ROW_10_97
*1066 TAP_TAPCELL_ROW_11_100
*1067 TAP_TAPCELL_ROW_11_98
*1068 TAP_TAPCELL_ROW_11_99
*1069 TAP_TAPCELL_ROW_12_101
*1070 TAP_TAPCELL_ROW_12_102
*1071 TAP_TAPCELL_ROW_12_103
*1072 TAP_TAPCELL_ROW_13_104
*1073 TAP_TAPCELL_ROW_13_105
*1074 TAP_TAPCELL_ROW_13_106
*1075 TAP_TAPCELL_ROW_14_107
*1076 TAP_TAPCELL_ROW_14_108
*1077 TAP_TAPCELL_ROW_14_109
*1078 TAP_TAPCELL_ROW_15_110
*1079 TAP_TAPCELL_ROW_15_111
*1080 TAP_TAPCELL_ROW_15_112
*1081 TAP_TAPCELL_ROW_16_113
*1082 TAP_TAPCELL_ROW_16_114
*1083 TAP_TAPCELL_ROW_16_115
*1084 TAP_TAPCELL_ROW_17_116
*1085 TAP_TAPCELL_ROW_17_117
*1086 TAP_TAPCELL_ROW_17_118
*1087 TAP_TAPCELL_ROW_18_119
*1088 TAP_TAPCELL_ROW_18_120
*1089 TAP_TAPCELL_ROW_18_121
*1090 TAP_TAPCELL_ROW_19_122
*1091 TAP_TAPCELL_ROW_19_123
*1092 TAP_TAPCELL_ROW_19_124
*1093 TAP_TAPCELL_ROW_1_68
*1094 TAP_TAPCELL_ROW_1_69
*1095 TAP_TAPCELL_ROW_1_70
*1096 TAP_TAPCELL_ROW_20_125
*1097 TAP_TAPCELL_ROW_20_126
*1098 TAP_TAPCELL_ROW_20_127
*1099 TAP_TAPCELL_ROW_21_128
*1100 TAP_TAPCELL_ROW_21_129
*1101 TAP_TAPCELL_ROW_21_130
*1102 TAP_TAPCELL_ROW_22_131
*1103 TAP_TAPCELL_ROW_22_132
*1104 TAP_TAPCELL_ROW_22_133
*1105 TAP_TAPCELL_ROW_23_134
*1106 TAP_TAPCELL_ROW_23_135
*1107 TAP_TAPCELL_ROW_23_136
*1108 TAP_TAPCELL_ROW_24_137
*1109 TAP_TAPCELL_ROW_24_138
*1110 TAP_TAPCELL_ROW_24_139
*1111 TAP_TAPCELL_ROW_25_140
*1112 TAP_TAPCELL_ROW_25_141
*1113 TAP_TAPCELL_ROW_25_142
*1114 TAP_TAPCELL_ROW_26_143
*1115 TAP_TAPCELL_ROW_26_144
*1116 TAP_TAPCELL_ROW_26_145
*1117 TAP_TAPCELL_ROW_27_146
*1118 TAP_TAPCELL_ROW_27_147
*1119 TAP_TAPCELL_ROW_27_148
*1120 TAP_TAPCELL_ROW_28_149
*1121 TAP_TAPCELL_ROW_28_150
*1122 TAP_TAPCELL_ROW_28_151
*1123 TAP_TAPCELL_ROW_29_152
*1124 TAP_TAPCELL_ROW_29_153
*1125 TAP_TAPCELL_ROW_29_154
*1126 TAP_TAPCELL_ROW_2_71
*1127 TAP_TAPCELL_ROW_2_72
*1128 TAP_TAPCELL_ROW_2_73
*1129 TAP_TAPCELL_ROW_30_155
*1130 TAP_TAPCELL_ROW_30_156
*1131 TAP_TAPCELL_ROW_30_157
*1132 TAP_TAPCELL_ROW_30_158
*1133 TAP_TAPCELL_ROW_30_159
*1134 TAP_TAPCELL_ROW_30_160
*1135 TAP_TAPCELL_ROW_3_74
*1136 TAP_TAPCELL_ROW_3_75
*1137 TAP_TAPCELL_ROW_3_76
*1138 TAP_TAPCELL_ROW_4_77
*1139 TAP_TAPCELL_ROW_4_78
*1140 TAP_TAPCELL_ROW_4_79
*1141 TAP_TAPCELL_ROW_5_80
*1142 TAP_TAPCELL_ROW_5_81
*1143 TAP_TAPCELL_ROW_5_82
*1144 TAP_TAPCELL_ROW_6_83
*1145 TAP_TAPCELL_ROW_6_84
*1146 TAP_TAPCELL_ROW_6_85
*1147 TAP_TAPCELL_ROW_7_86
*1148 TAP_TAPCELL_ROW_7_87
*1149 TAP_TAPCELL_ROW_7_88
*1150 TAP_TAPCELL_ROW_8_89
*1151 TAP_TAPCELL_ROW_8_90
*1152 TAP_TAPCELL_ROW_8_91
*1153 TAP_TAPCELL_ROW_9_92
*1154 TAP_TAPCELL_ROW_9_93
*1155 TAP_TAPCELL_ROW_9_94
*1156 _387_
*1157 _388_
*1158 _389_
*1159 _390_
*1160 _391_
*1161 _392_
*1162 _393_
*1163 _394_
*1164 _395_
*1165 _396_
*1166 _397_
*1167 _398_
*1168 _399_
*1169 _400_
*1170 _401_
*1171 _402_
*1172 _403_
*1173 _404_
*1174 _405_
*1175 _406_
*1176 _407_
*1177 _408_
*1178 _409_
*1179 _410_
*1180 _411_
*1181 _412_
*1182 _413_
*1183 _414_
*1184 _415_
*1185 _416_
*1186 _417_
*1187 _418_
*1188 _419_
*1189 _420_
*1190 _421_
*1191 _422_
*1192 _423_
*1193 _424_
*1194 _425_
*1195 _426_
*1196 _427_
*1197 _428_
*1198 _429_
*1199 _430_
*1200 _431_
*1201 _432_
*1202 _433_
*1203 _434_
*1204 _435_
*1205 _436_
*1206 _437_
*1207 _438_
*1208 _439_
*1209 _440_
*1210 _441_
*1211 _442_
*1212 _443_
*1213 _444_
*1214 _445_
*1215 _446_
*1216 _447_
*1217 _448_
*1218 _449_
*1219 _450_
*1220 _451_
*1221 _452_
*1222 _453_
*1223 _454_
*1224 _455_
*1225 _456_
*1226 _457_
*1227 _458_
*1228 _459_
*1229 _460_
*1230 _461_
*1231 _462_
*1232 _463_
*1233 _464_
*1234 _465_
*1235 _466_
*1236 _467_
*1237 _468_
*1238 _469_
*1239 _470_
*1240 _471_
*1241 _472_
*1242 _473_
*1243 _474_
*1244 _475_
*1245 _476_
*1246 _477_
*1247 _478_
*1248 _479_
*1249 _480_
*1250 _481_
*1251 _482_
*1252 _483_
*1253 _484_
*1254 _485_
*1255 _486_
*1256 _487_
*1257 _488_
*1258 _489_
*1259 _490_
*1260 _491_
*1261 _492_
*1262 _493_
*1263 _494_
*1264 _495_
*1265 _496_
*1266 _497_
*1267 _498_
*1268 _499_
*1269 _500_
*1270 _501_
*1271 _502_
*1272 _503_
*1273 _504_
*1274 _505_
*1275 _506_
*1276 _507_
*1277 _508_
*1278 _509_
*1279 _510_
*1280 _511_
*1281 _512_
*1282 _513_
*1283 _514_
*1284 _515_
*1285 _516_
*1286 _517_
*1287 _518_
*1288 _519_
*1289 _520_
*1290 _521_
*1291 _522_
*1292 _523_
*1293 _524_
*1294 _525_
*1295 _526_
*1296 _527_
*1297 _528_
*1298 _529_
*1299 _530_
*1300 _531_
*1301 _532_
*1302 _533_
*1303 _534_
*1304 _535_
*1305 _536_
*1306 _537_
*1307 _538_
*1308 _539_
*1309 _540_
*1310 _541_
*1311 _542_
*1312 _543_
*1313 _544_
*1314 _545_
*1315 _546_
*1316 _547_
*1317 _548_
*1318 _549_
*1319 _550_
*1320 _551_
*1321 _552_
*1322 _553_
*1323 _554_
*1324 _555_
*1325 _556_
*1326 _557_
*1327 _558_
*1328 _559_
*1329 _560_
*1330 _561_
*1331 _562_
*1332 _563_
*1333 _564_
*1334 _565_
*1335 _566_
*1336 _567_
*1337 _568_
*1338 _569_
*1339 _570_
*1340 _571_
*1341 _572_
*1342 _573_
*1343 _574_
*1344 _575_
*1345 _576_
*1346 _577_
*1347 _578_
*1348 _579_
*1349 _580_
*1350 _581_
*1351 _582_
*1352 _583_
*1353 _584_
*1354 _585_
*1355 _586_
*1356 _587_
*1357 _588_
*1358 _589_
*1359 _590_
*1360 _591_
*1361 _592_
*1362 _593_
*1363 _594_
*1364 _595_
*1365 _596_
*1366 _597_
*1367 _598_
*1368 _599_
*1369 _600_
*1370 _601_
*1371 _602_
*1372 _603_
*1373 _604_
*1374 _605_
*1375 _606_
*1376 _607_
*1377 _608_
*1378 _609_
*1379 _610_
*1380 _611_
*1381 _612_
*1382 _613_
*1383 _614_
*1384 _615_
*1385 _616_
*1386 _617_
*1387 _618_
*1388 _619_
*1389 _620_
*1390 _621_
*1391 _622_
*1392 _623_
*1393 _624_
*1394 _625_
*1395 _626_
*1396 _627_
*1397 _628_
*1398 _629_
*1399 _630_
*1400 _631_
*1401 _632_
*1402 _633_
*1403 _634_
*1404 _635_
*1405 _636_
*1406 _637_
*1407 _638_
*1408 _639_
*1409 _640_
*1410 _641_
*1411 _642_
*1412 _643_
*1413 _644_
*1414 _645_
*1415 _646_
*1416 _647_
*1417 _648_
*1418 _649_
*1419 _650_
*1420 _651_
*1421 _652_
*1422 _653_
*1423 _654_
*1424 _655_
*1425 _656_
*1426 _657_
*1427 _658_
*1428 _659_
*1429 _660_
*1430 _661_
*1431 _662_
*1432 _663_
*1433 _664_
*1434 _665_
*1435 _666_
*1436 _667_
*1437 _668_
*1438 _669_
*1439 _670_
*1440 _671_
*1441 _672_
*1442 _673_
*1443 _674_
*1444 _675_
*1445 _676_
*1446 _677_
*1447 _678_
*1448 _679_
*1449 _680_
*1450 _681_
*1451 _682_
*1452 _683_
*1453 _684_
*1454 _685_
*1455 _686_
*1456 _687_
*1457 _688_
*1458 _689_
*1459 _690_
*1460 _691_
*1461 _692_
*1462 _693_
*1463 _694_
*1464 _695_
*1465 _696_
*1466 _697_
*1467 _698_
*1468 _699_
*1469 _700_
*1470 _701_
*1471 _702_
*1472 _703_
*1473 _704_
*1474 _705_
*1475 _706_
*1476 _707_
*1477 _708_
*1478 _709_
*1479 _710_
*1480 _711_
*1481 _712_
*1482 _713_
*1483 _714_
*1484 _715_
*1485 _716_
*1486 _717_
*1487 _718_
*1488 _719_
*1489 _720_
*1490 _721_
*1491 _722_
*1492 _723_
*1493 _724_
*1494 _725_
*1495 _726_
*1496 _727_
*1497 _728_
*1498 _729_
*1499 _730_
*1500 _731_
*1501 _732_
*1502 _733_
*1503 _734_
*1504 _735_
*1505 _736_
*1506 _737_
*1507 _738_
*1508 _739_
*1509 _740_
*1510 _741_
*1511 _742_
*1512 _743_
*1513 _744_
*1514 _745_
*1515 _746_
*1516 _747_
*1517 _748_
*1518 _749_
*1519 _750_
*1520 _751_
*1521 _752_
*1522 _753_
*1523 _754_
*1524 _755_
*1525 _756_
*1526 _757_
*1527 _758_
*1528 _759_
*1529 _760_
*1530 _761_
*1531 _762_
*1532 _763_
*1533 _764_
*1534 _765_
*1535 _766_
*1536 _767_
*1537 _768_
*1538 _769_
*1539 _770_
*1540 _771_
*1541 _772_
*1542 _773_
*1543 _774_
*1544 _775_
*1545 _776_
*1546 _777_
*1547 _778_
*1548 _779_
*1549 _780_
*1550 _781_
*1551 _782_
*1552 _783_
*1553 _784_
*1554 _785_
*1555 _786_
*1556 _787_
*1557 _788_
*1558 _789_
*1559 _790_
*1560 _791_
*1561 _792_
*1562 _793_
*1563 _794_
*1564 _795_
*1565 _796_
*1566 _797_
*1567 clkbuf_0_clk
*1568 clkbuf_1_0__f_clk
*1569 clkbuf_1_1__f_clk
*1570 fanout18
*1571 fanout20
*1572 fanout21
*1573 fanout22
*1574 fanout23
*1575 fanout24
*1576 fanout25
*1577 fanout26
*1578 fanout27
*1579 fanout28
*1580 fanout29
*1581 fanout30
*1582 fanout31
*1583 fanout32
*1584 fanout33
*1585 fanout34
*1586 fanout35
*1587 fanout36
*1588 fanout37
*1589 fanout38
*1590 fanout39
*1591 fanout40
*1592 fanout41
*1593 fanout42
*1594 fanout43
*1595 fanout44
*1596 fanout45
*1597 fanout46
*1598 fanout47
*1599 fanout48
*1600 fanout49
*1601 fanout50
*1602 fanout51
*1603 fanout52
*1604 fanout53
*1605 fanout54
*1606 fanout55
*1607 fanout56
*1608 fanout57
*1609 fanout58
*1610 fanout59
*1611 fanout60
*1612 fanout61
*1613 fanout62
*1614 fanout63
*1615 fanout64
*1616 fanout65
*1617 fanout66
*1618 fanout67
*1619 fanout68
*1620 fanout69
*1621 fanout70
*1622 fanout71
*1623 fanout72
*1624 fanout73
*1625 fanout74
*1626 fanout75
*1627 fanout76
*1628 fanout77
*1629 fanout78
*1630 fanout79
*1631 input1
*1632 output10
*1633 output11
*1634 output12
*1635 output13
*1636 output14
*1637 output15
*1638 output16
*1639 output17
*1640 output2
*1641 output3
*1642 output4
*1643 output5
*1644 output6
*1645 output7
*1646 output8
*1647 output9
*1648 wire19

*PORTS
clk I
rst I
sine_out[0] O
sine_out[10] O
sine_out[11] O
sine_out[12] O
sine_out[13] O
sine_out[14] O
sine_out[15] O
sine_out[1] O
sine_out[2] O
sine_out[3] O
sine_out[4] O
sine_out[5] O
sine_out[6] O
sine_out[7] O
sine_out[8] O
sine_out[9] O

*D_NET *3 0.0015568
*CONN
*P clk I
*I *1567:A I *D sky130_fd_sc_hd__clkbuf_16
*CAP
1 clk 0.000526257
2 *1567:A 0.000526257
3 *1567:A sine_out[0] 0
4 *1567:A *1630:A 5.45625e-05
5 *1567:A *1631:A 0.000202489
6 *1567:A *411:10 5.33882e-05
7 *1567:A *411:19 0.000193843
*RES
1 clk *1567:A 25.1592 
*END

*D_NET *4 0.000690932
*CONN
*P rst I
*I *1631:A I *D sky130_fd_sc_hd__clkbuf_4
*CAP
1 rst 0.000242174
2 *1631:A 0.000242174
3 *1631:A *411:10 4.09488e-06
4 *1567:A *1631:A 0.000202489
*RES
1 rst *1631:A 19.6407 
*END

*D_NET *5 0.000560308
*CONN
*P sine_out[0] O
*I *1640:X O *D sky130_fd_sc_hd__buf_2
*CAP
1 sine_out[0] 0.000280154
2 *1640:X 0.000280154
3 *1567:A sine_out[0] 0
*RES
1 *1640:X sine_out[0] 19.3371 
*END

*D_NET *6 0.000880645
*CONN
*P sine_out[10] O
*I *1641:X O *D sky130_fd_sc_hd__buf_2
*CAP
1 sine_out[10] 0.000440323
2 *1641:X 0.000440323
*RES
1 *1641:X sine_out[10] 21.6393 
*END

*D_NET *7 0.000654609
*CONN
*P sine_out[11] O
*I *1642:X O *D sky130_fd_sc_hd__buf_2
*CAP
1 sine_out[11] 0.000302499
2 *1642:X 0.000302499
3 sine_out[11] sine_out[7] 0
4 sine_out[11] *1642:A 3.92854e-05
5 sine_out[11] *439:47 1.03245e-05
*RES
1 *1642:X sine_out[11] 19.4092 
*END

*D_NET *8 0.000666527
*CONN
*P sine_out[12] O
*I *1643:X O *D sky130_fd_sc_hd__buf_2
*CAP
1 sine_out[12] 0.000321966
2 *1643:X 0.000321966
3 sine_out[12] sine_out[15] 2.25951e-05
4 sine_out[12] *1643:A 0
*RES
1 *1643:X sine_out[12] 19.6044 
*END

*D_NET *9 0.000578454
*CONN
*P sine_out[13] O
*I *1644:X O *D sky130_fd_sc_hd__buf_2
*CAP
1 sine_out[13] 0.000252506
2 *1644:X 0.000252506
3 sine_out[13] sine_out[14] 7.34412e-05
4 sine_out[13] sine_out[15] 0
*RES
1 *1644:X sine_out[13] 18.9972 
*END

*D_NET *10 0.00109327
*CONN
*P sine_out[14] O
*I *1645:X O *D sky130_fd_sc_hd__buf_2
*CAP
1 sine_out[14] 0.000437122
2 *1645:X 0.000437122
3 sine_out[14] *1538:A1 0
4 sine_out[14] *1645:A 0.000145584
5 sine_out[14] *346:10 0
6 sine_out[13] sine_out[14] 7.34412e-05
*RES
1 *1645:X sine_out[14] 23.0521 
*END

*D_NET *11 0.000843759
*CONN
*P sine_out[15] O
*I *1646:X O *D sky130_fd_sc_hd__buf_2
*CAP
1 sine_out[15] 0.000410582
2 *1646:X 0.000410582
3 sine_out[15] *1646:A 0
4 sine_out[15] *439:39 0
5 sine_out[12] sine_out[15] 2.25951e-05
6 sine_out[13] sine_out[15] 0
*RES
1 *1646:X sine_out[15] 22.1053 
*END

*D_NET *12 0.00096179
*CONN
*P sine_out[1] O
*I *1647:X O *D sky130_fd_sc_hd__buf_2
*CAP
1 sine_out[1] 0.000466439
2 *1647:X 0.000466439
3 sine_out[1] *1647:A 2.89114e-05
*RES
1 *1647:X sine_out[1] 22.05 
*END

*D_NET *13 0.000495547
*CONN
*P sine_out[2] O
*I *1632:X O *D sky130_fd_sc_hd__buf_2
*CAP
1 sine_out[2] 0.000247773
2 *1632:X 0.000247773
3 sine_out[2] *481:71 0
*RES
1 *1632:X sine_out[2] 18.73 
*END

*D_NET *14 0.00127184
*CONN
*P sine_out[3] O
*I *1633:X O *D sky130_fd_sc_hd__buf_2
*CAP
1 sine_out[3] 0.000563536
2 *1633:X 0.000563536
3 sine_out[3] *445:34 0.000144773
*RES
1 *1633:X sine_out[3] 24.4786 
*END

*D_NET *15 0.00139847
*CONN
*P sine_out[4] O
*I *1634:X O *D sky130_fd_sc_hd__buf_2
*CAP
1 sine_out[4] 0.000353511
2 *1634:X 0.000353511
3 sine_out[4] sine_out[7] 9.54485e-05
4 sine_out[4] sine_out[9] 2.25951e-05
5 sine_out[4] *1485:A1 0.000113381
6 sine_out[4] *270:14 0.000177948
7 sine_out[4] *428:90 0.000144512
8 sine_out[4] *428:92 0.000137568
*RES
1 *1634:X sine_out[4] 21.8225 
*END

*D_NET *16 0.0016033
*CONN
*P sine_out[5] O
*I *1635:X O *D sky130_fd_sc_hd__buf_2
*CAP
1 sine_out[5] 0.000724099
2 *1635:X 0.000724099
3 sine_out[5] *278:16 0.000151071
4 sine_out[5] *439:12 4.0342e-06
*RES
1 *1635:X sine_out[5] 26.5321 
*END

*D_NET *17 0.000763875
*CONN
*P sine_out[6] O
*I *1636:X O *D sky130_fd_sc_hd__buf_2
*CAP
1 sine_out[6] 0.000381937
2 *1636:X 0.000381937
3 sine_out[6] *1636:A 0
4 sine_out[6] *439:47 0
*RES
1 *1636:X sine_out[6] 20.8888 
*END

*D_NET *18 0.000526337
*CONN
*P sine_out[7] O
*I *1637:X O *D sky130_fd_sc_hd__buf_2
*CAP
1 sine_out[7] 0.000204017
2 *1637:X 0.000204017
3 sine_out[7] *1637:A 2.28544e-05
4 sine_out[11] sine_out[7] 0
5 sine_out[4] sine_out[7] 9.54485e-05
*RES
1 *1637:X sine_out[7] 18.4985 
*END

*D_NET *19 0.0014664
*CONN