* NGSPICE file created from counter.ext - technology: sky130A

* Black-box entry subcircuit for sky130_fd_sc_hd__tapvpwrvgnd_1 abstract view
.subckt sky130_fd_sc_hd__tapvpwrvgnd_1 VGND VPWR
.ends

* Black-box entry subcircuit for sky130_fd_sc_hd__fill_2 abstract view
.subckt sky130_fd_sc_hd__fill_2 VGND VNB VPB VPWR
.ends

* Black-box entry subcircuit for sky130_fd_sc_hd__fill_1 abstract view
.subckt sky130_fd_sc_hd__fill_1 VGND VNB VPB VPWR
.ends

* Black-box entry subcircuit for sky130_fd_sc_hd__decap_8 abstract view
.subckt sky130_fd_sc_hd__decap_8 VGND VNB VPB VPWR
.ends

* Black-box entry subcircuit for sky130_fd_sc_hd__decap_3 abstract view
.subckt sky130_fd_sc_hd__decap_3 VGND VNB VPB VPWR
.ends

* Black-box entry subcircuit for sky130_fd_sc_hd__a21bo_1 abstract view
.subckt sky130_fd_sc_hd__a21bo_1 A1 A2 B1_N VGND VNB VPB VPWR X
.ends

* Black-box entry subcircuit for sky130_fd_sc_hd__xnor2_4 abstract view
.subckt sky130_fd_sc_hd__xnor2_4 A B VGND VNB VPB VPWR Y
.ends

* Black-box entry subcircuit for sky130_fd_sc_hd__decap_6 abstract view
.subckt sky130_fd_sc_hd__decap_6 VGND VNB VPB VPWR
.ends

* Black-box entry subcircuit for sky130_fd_sc_hd__a21oi_1 abstract view
.subckt sky130_fd_sc_hd__a21oi_1 A1 A2 B1 VGND VNB VPB VPWR Y
.ends

* Black-box entry subcircuit for sky130_ef_sc_hd__decap_12 abstract view
.subckt sky130_ef_sc_hd__decap_12 VPWR VGND VPB VNB
.ends

* Black-box entry subcircuit for sky130_fd_sc_hd__or3_1 abstract view
.subckt sky130_fd_sc_hd__or3_1 A B C VGND VNB VPB VPWR X
.ends

* Black-box entry subcircuit for sky130_fd_sc_hd__a21o_1 abstract view
.subckt sky130_fd_sc_hd__a21o_1 A1 A2 B1 VGND VNB VPB VPWR X
.ends

* Black-box entry subcircuit for sky130_fd_sc_hd__nand2_1 abstract view
.subckt sky130_fd_sc_hd__nand2_1 A B VGND VNB VPB VPWR Y
.ends

* Black-box entry subcircuit for sky130_fd_sc_hd__buf_2 abstract view
.subckt sky130_fd_sc_hd__buf_2 A VGND VNB VPB VPWR X
.ends

* Black-box entry subcircuit for sky130_fd_sc_hd__a31o_1 abstract view
.subckt sky130_fd_sc_hd__a31o_1 A1 A2 A3 B1 VGND VNB VPB VPWR X
.ends

* Black-box entry subcircuit for sky130_fd_sc_hd__a22o_1 abstract view
.subckt sky130_fd_sc_hd__a22o_1 A1 A2 B1 B2 VGND VNB VPB VPWR X
.ends

* Black-box entry subcircuit for sky130_fd_sc_hd__or2_2 abstract view
.subckt sky130_fd_sc_hd__or2_2 A B VGND VNB VPB VPWR X
.ends

* Black-box entry subcircuit for sky130_fd_sc_hd__o32a_1 abstract view
.subckt sky130_fd_sc_hd__o32a_1 A1 A2 A3 B1 B2 VGND VNB VPB VPWR X
.ends

* Black-box entry subcircuit for sky130_fd_sc_hd__buf_1 abstract view
.subckt sky130_fd_sc_hd__buf_1 A VGND VNB VPB VPWR X
.ends

* Black-box entry subcircuit for sky130_fd_sc_hd__decap_4 abstract view
.subckt sky130_fd_sc_hd__decap_4 VGND VNB VPB VPWR
.ends

* Black-box entry subcircuit for sky130_fd_sc_hd__a211o_1 abstract view
.subckt sky130_fd_sc_hd__a211o_1 A1 A2 B1 C1 VGND VNB VPB VPWR X
.ends

* Black-box entry subcircuit for sky130_fd_sc_hd__a311o_1 abstract view
.subckt sky130_fd_sc_hd__a311o_1 A1 A2 A3 B1 C1 VGND VNB VPB VPWR X
.ends

* Black-box entry subcircuit for sky130_fd_sc_hd__nand2b_1 abstract view
.subckt sky130_fd_sc_hd__nand2b_1 A_N B VGND VNB VPB VPWR Y
.ends

* Black-box entry subcircuit for sky130_fd_sc_hd__o211ai_1 abstract view
.subckt sky130_fd_sc_hd__o211ai_1 A1 A2 B1 C1 VGND VNB VPB VPWR Y
.ends

* Black-box entry subcircuit for sky130_fd_sc_hd__nor2_1 abstract view
.subckt sky130_fd_sc_hd__nor2_1 A B VGND VNB VPB VPWR Y
.ends

* Black-box entry subcircuit for sky130_fd_sc_hd__o311a_1 abstract view
.subckt sky130_fd_sc_hd__o311a_1 A1 A2 A3 B1 C1 VGND VNB VPB VPWR X
.ends

* Black-box entry subcircuit for sky130_fd_sc_hd__or3b_1 abstract view
.subckt sky130_fd_sc_hd__or3b_1 A B C_N VGND VNB VPB VPWR X
.ends

* Black-box entry subcircuit for sky130_fd_sc_hd__o21a_1 abstract view
.subckt sky130_fd_sc_hd__o21a_1 A1 A2 B1 VGND VNB VPB VPWR X
.ends

* Black-box entry subcircuit for sky130_fd_sc_hd__a221o_1 abstract view
.subckt sky130_fd_sc_hd__a221o_1 A1 A2 B1 B2 C1 VGND VNB VPB VPWR X
.ends

* Black-box entry subcircuit for sky130_fd_sc_hd__o211a_1 abstract view
.subckt sky130_fd_sc_hd__o211a_1 A1 A2 B1 C1 VGND VNB VPB VPWR X
.ends

* Black-box entry subcircuit for sky130_fd_sc_hd__inv_2 abstract view
.subckt sky130_fd_sc_hd__inv_2 A VGND VNB VPB VPWR Y
.ends

* Black-box entry subcircuit for sky130_fd_sc_hd__and3b_2 abstract view
.subckt sky130_fd_sc_hd__and3b_2 A_N B C VGND VNB VPB VPWR X
.ends

* Black-box entry subcircuit for sky130_fd_sc_hd__or2_1 abstract view
.subckt sky130_fd_sc_hd__or2_1 A B VGND VNB VPB VPWR X
.ends

* Black-box entry subcircuit for sky130_fd_sc_hd__o2111a_1 abstract view
.subckt sky130_fd_sc_hd__o2111a_1 A1 A2 B1 C1 D1 VGND VNB VPB VPWR X
.ends

* Black-box entry subcircuit for sky130_fd_sc_hd__a21boi_2 abstract view
.subckt sky130_fd_sc_hd__a21boi_2 A1 A2 B1_N VGND VNB VPB VPWR Y
.ends

* Black-box entry subcircuit for sky130_fd_sc_hd__nand2_2 abstract view
.subckt sky130_fd_sc_hd__nand2_2 A B VGND VNB VPB VPWR Y
.ends

* Black-box entry subcircuit for sky130_fd_sc_hd__a22oi_1 abstract view
.subckt sky130_fd_sc_hd__a22oi_1 A1 A2 B1 B2 VGND VNB VPB VPWR Y
.ends

* Black-box entry subcircuit for sky130_fd_sc_hd__clkbuf_8 abstract view
.subckt sky130_fd_sc_hd__clkbuf_8 A VGND VNB VPB VPWR X
.ends

* Black-box entry subcircuit for sky130_fd_sc_hd__a32o_1 abstract view
.subckt sky130_fd_sc_hd__a32o_1 A1 A2 A3 B1 B2 VGND VNB VPB VPWR X
.ends

* Black-box entry subcircuit for sky130_fd_sc_hd__clkbuf_4 abstract view
.subckt sky130_fd_sc_hd__clkbuf_4 A VGND VNB VPB VPWR X
.ends

* Black-box entry subcircuit for sky130_fd_sc_hd__dlymetal6s2s_1 abstract view
.subckt sky130_fd_sc_hd__dlymetal6s2s_1 A VGND VNB VPB VPWR X
.ends

* Black-box entry subcircuit for sky130_fd_sc_hd__and2_1 abstract view
.subckt sky130_fd_sc_hd__and2_1 A B VGND VNB VPB VPWR X
.ends

* Black-box entry subcircuit for sky130_fd_sc_hd__mux2_1 abstract view
.subckt sky130_fd_sc_hd__mux2_1 A0 A1 S VGND VNB VPB VPWR X
.ends

* Black-box entry subcircuit for sky130_fd_sc_hd__and2b_2 abstract view
.subckt sky130_fd_sc_hd__and2b_2 A_N B VGND VNB VPB VPWR X
.ends

* Black-box entry subcircuit for sky130_fd_sc_hd__nor3b_2 abstract view
.subckt sky130_fd_sc_hd__nor3b_2 A B C_N VGND VNB VPB VPWR Y
.ends

* Black-box entry subcircuit for sky130_fd_sc_hd__clkbuf_2 abstract view
.subckt sky130_fd_sc_hd__clkbuf_2 A VGND VNB VPB VPWR X
.ends

* Black-box entry subcircuit for sky130_fd_sc_hd__nor3_1 abstract view
.subckt sky130_fd_sc_hd__nor3_1 A B C VGND VNB VPB VPWR Y
.ends

* Black-box entry subcircuit for sky130_fd_sc_hd__clkbuf_16 abstract view
.subckt sky130_fd_sc_hd__clkbuf_16 A VGND VNB VPB VPWR X
.ends

* Black-box entry subcircuit for sky130_fd_sc_hd__nand2_4 abstract view
.subckt sky130_fd_sc_hd__nand2_4 A B VGND VNB VPB VPWR Y
.ends

* Black-box entry subcircuit for sky130_fd_sc_hd__and3_1 abstract view
.subckt sky130_fd_sc_hd__and3_1 A B C VGND VNB VPB VPWR X
.ends

* Black-box entry subcircuit for sky130_fd_sc_hd__or4_1 abstract view
.subckt sky130_fd_sc_hd__or4_1 A B C D VGND VNB VPB VPWR X
.ends

* Black-box entry subcircuit for sky130_fd_sc_hd__a2bb2o_1 abstract view
.subckt sky130_fd_sc_hd__a2bb2o_1 A1_N A2_N B1 B2 VGND VNB VPB VPWR X
.ends

* Black-box entry subcircuit for sky130_fd_sc_hd__nor2_2 abstract view
.subckt sky130_fd_sc_hd__nor2_2 A B VGND VNB VPB VPWR Y
.ends

* Black-box entry subcircuit for sky130_fd_sc_hd__o221a_1 abstract view
.subckt sky130_fd_sc_hd__o221a_1 A1 A2 B1 B2 C1 VGND VNB VPB VPWR X
.ends

* Black-box entry subcircuit for sky130_fd_sc_hd__nand4_1 abstract view
.subckt sky130_fd_sc_hd__nand4_1 A B C D VGND VNB VPB VPWR Y
.ends

* Black-box entry subcircuit for sky130_fd_sc_hd__o21ai_2 abstract view
.subckt sky130_fd_sc_hd__o21ai_2 A1 A2 B1 VGND VNB VPB VPWR Y
.ends

* Black-box entry subcircuit for sky130_fd_sc_hd__nand3b_1 abstract view
.subckt sky130_fd_sc_hd__nand3b_1 A_N B C VGND VNB VPB VPWR Y
.ends

* Black-box entry subcircuit for sky130_fd_sc_hd__a221oi_1 abstract view
.subckt sky130_fd_sc_hd__a221oi_1 A1 A2 B1 B2 C1 VGND VNB VPB VPWR Y
.ends

* Black-box entry subcircuit for sky130_fd_sc_hd__a31oi_1 abstract view
.subckt sky130_fd_sc_hd__a31oi_1 A1 A2 A3 B1 VGND VNB VPB VPWR Y
.ends

* Black-box entry subcircuit for sky130_fd_sc_hd__xnor2_1 abstract view
.subckt sky130_fd_sc_hd__xnor2_1 A B VGND VNB VPB VPWR Y
.ends

* Black-box entry subcircuit for sky130_fd_sc_hd__o21ai_1 abstract view
.subckt sky130_fd_sc_hd__o21ai_1 A1 A2 B1 VGND VNB VPB VPWR Y
.ends

* Black-box entry subcircuit for sky130_fd_sc_hd__o21a_2 abstract view
.subckt sky130_fd_sc_hd__o21a_2 A1 A2 B1 VGND VNB VPB VPWR X
.ends

* Black-box entry subcircuit for sky130_fd_sc_hd__and3b_1 abstract view
.subckt sky130_fd_sc_hd__and3b_1 A_N B C VGND VNB VPB VPWR X
.ends

* Black-box entry subcircuit for sky130_fd_sc_hd__a21oi_2 abstract view
.subckt sky130_fd_sc_hd__a21oi_2 A1 A2 B1 VGND VNB VPB VPWR Y
.ends

* Black-box entry subcircuit for sky130_fd_sc_hd__nand2b_4 abstract view
.subckt sky130_fd_sc_hd__nand2b_4 A_N B VGND VNB VPB VPWR Y
.ends

* Black-box entry subcircuit for sky130_fd_sc_hd__buf_4 abstract view
.subckt sky130_fd_sc_hd__buf_4 A VGND VNB VPB VPWR X
.ends

* Black-box entry subcircuit for sky130_fd_sc_hd__nor2_4 abstract view
.subckt sky130_fd_sc_hd__nor2_4 A B VGND VNB VPB VPWR Y
.ends

* Black-box entry subcircuit for sky130_fd_sc_hd__a2111o_1 abstract view
.subckt sky130_fd_sc_hd__a2111o_1 A1 A2 B1 C1 D1 VGND VNB VPB VPWR X
.ends

* Black-box entry subcircuit for sky130_fd_sc_hd__o22ai_1 abstract view
.subckt sky130_fd_sc_hd__o22ai_1 A1 A2 B1 B2 VGND VNB VPB VPWR Y
.ends

* Black-box entry subcircuit for sky130_fd_sc_hd__a21bo_2 abstract view
.subckt sky130_fd_sc_hd__a21bo_2 A1 A2 B1_N VGND VNB VPB VPWR X
.ends

* Black-box entry subcircuit for sky130_fd_sc_hd__o21ba_1 abstract view
.subckt sky130_fd_sc_hd__o21ba_1 A1 A2 B1_N VGND VNB VPB VPWR X
.ends

* Black-box entry subcircuit for sky130_fd_sc_hd__o21bai_2 abstract view
.subckt sky130_fd_sc_hd__o21bai_2 A1 A2 B1_N VGND VNB VPB VPWR Y
.ends

* Black-box entry subcircuit for sky130_fd_sc_hd__o31ai_1 abstract view
.subckt sky130_fd_sc_hd__o31ai_1 A1 A2 A3 B1 VGND VNB VPB VPWR Y
.ends

* Black-box entry subcircuit for sky130_fd_sc_hd__o22a_1 abstract view
.subckt sky130_fd_sc_hd__o22a_1 A1 A2 B1 B2 VGND VNB VPB VPWR X
.ends

* Black-box entry subcircuit for sky130_fd_sc_hd__o31a_1 abstract view
.subckt sky130_fd_sc_hd__o31a_1 A1 A2 A3 B1 VGND VNB VPB VPWR X
.ends

* Black-box entry subcircuit for sky130_fd_sc_hd__and2b_1 abstract view
.subckt sky130_fd_sc_hd__and2b_1 A_N B VGND VNB VPB VPWR X
.ends

* Black-box entry subcircuit for sky130_fd_sc_hd__nor3b_1 abstract view
.subckt sky130_fd_sc_hd__nor3b_1 A B C_N VGND VNB VPB VPWR Y
.ends

* Black-box entry subcircuit for sky130_fd_sc_hd__a41o_1 abstract view
.subckt sky130_fd_sc_hd__a41o_1 A1 A2 A3 A4 B1 VGND VNB VPB VPWR X
.ends

* Black-box entry subcircuit for sky130_fd_sc_hd__nand2b_2 abstract view
.subckt sky130_fd_sc_hd__nand2b_2 A_N B VGND VNB VPB VPWR Y
.ends

* Black-box entry subcircuit for sky130_fd_sc_hd__dfrtp_1 abstract view
.subckt sky130_fd_sc_hd__dfrtp_1 CLK D RESET_B VGND VNB VPB VPWR Q
.ends

* Black-box entry subcircuit for sky130_fd_sc_hd__or4b_1 abstract view
.subckt sky130_fd_sc_hd__or4b_1 A B C D_N VGND VNB VPB VPWR X
.ends

* Black-box entry subcircuit for sky130_fd_sc_hd__o211ai_2 abstract view
.subckt sky130_fd_sc_hd__o211ai_2 A1 A2 B1 C1 VGND VNB VPB VPWR Y
.ends

* Black-box entry subcircuit for sky130_fd_sc_hd__or3_2 abstract view
.subckt sky130_fd_sc_hd__or3_2 A B C VGND VNB VPB VPWR X
.ends

* Black-box entry subcircuit for sky130_fd_sc_hd__a32oi_1 abstract view
.subckt sky130_fd_sc_hd__a32oi_1 A1 A2 A3 B1 B2 VGND VNB VPB VPWR Y
.ends

* Black-box entry subcircuit for sky130_fd_sc_hd__and4_1 abstract view
.subckt sky130_fd_sc_hd__and4_1 A B C D VGND VNB VPB VPWR X
.ends

* Black-box entry subcircuit for sky130_fd_sc_hd__a211oi_1 abstract view
.subckt sky130_fd_sc_hd__a211oi_1 A1 A2 B1 C1 VGND VNB VPB VPWR Y
.ends

* Black-box entry subcircuit for sky130_fd_sc_hd__and2_2 abstract view
.subckt sky130_fd_sc_hd__and2_2 A B VGND VNB VPB VPWR X
.ends

* Black-box entry subcircuit for sky130_fd_sc_hd__o31ai_4 abstract view
.subckt sky130_fd_sc_hd__o31ai_4 A1 A2 A3 B1 VGND VNB VPB VPWR Y
.ends

* Black-box entry subcircuit for sky130_fd_sc_hd__a211o_2 abstract view
.subckt sky130_fd_sc_hd__a211o_2 A1 A2 B1 C1 VGND VNB VPB VPWR X
.ends

* Black-box entry subcircuit for sky130_fd_sc_hd__o21bai_1 abstract view
.subckt sky130_fd_sc_hd__o21bai_1 A1 A2 B1_N VGND VNB VPB VPWR Y
.ends

* Black-box entry subcircuit for sky130_fd_sc_hd__o2bb2a_1 abstract view
.subckt sky130_fd_sc_hd__o2bb2a_1 A1_N A2_N B1 B2 VGND VNB VPB VPWR X
.ends

* Black-box entry subcircuit for sky130_fd_sc_hd__a21o_2 abstract view
.subckt sky130_fd_sc_hd__a21o_2 A1 A2 B1 VGND VNB VPB VPWR X
.ends

* Black-box entry subcircuit for sky130_fd_sc_hd__nor3_4 abstract view
.subckt sky130_fd_sc_hd__nor3_4 A B C VGND VNB VPB VPWR Y
.ends

.subckt counter VGND VPWR clk rst sine_out[0] sine_out[10] sine_out[11] sine_out[12]
+ sine_out[13] sine_out[14] sine_out[15] sine_out[1] sine_out[2] sine_out[3] sine_out[4]
+ sine_out[5] sine_out[6] sine_out[7] sine_out[8] sine_out[9]
XTAP_TAPCELL_ROW_24_139 VGND VPWR sky130_fd_sc_hd__tapvpwrvgnd_1
XFILLER_26_85 VGND VGND VPWR VPWR sky130_fd_sc_hd__fill_2
XFILLER_13_111 VGND VGND VPWR VPWR sky130_fd_sc_hd__fill_1
XFILLER_13_100 VGND VGND VPWR VPWR sky130_fd_sc_hd__decap_8
XFILLER_3_23 VGND VGND VPWR VPWR sky130_fd_sc_hd__decap_3
X_501_ _338_ net23 _350_ VGND VGND VPWR VPWR _071_ sky130_fd_sc_hd__a21bo_1
X_432_ net75 net70 VGND VGND VPWR VPWR _375_ sky130_fd_sc_hd__xnor2_4
XFILLER_9_137 VGND VGND VPWR VPWR sky130_fd_sc_hd__decap_6
XPHY_EDGE_ROW_19_Left_50 VGND VGND VPWR VPWR sky130_fd_sc_hd__decap_3
X_415_ net74 _347_ net58 VGND VGND VPWR VPWR _358_ sky130_fd_sc_hd__a21oi_1
XFILLER_6_118 VGND VGND VPWR VPWR sky130_fd_sc_hd__decap_3
XFILLER_10_169 VGND VGND VPWR VPWR sky130_fd_sc_hd__fill_2
XFILLER_23_86 VGND VGND VPWR VPWR sky130_fd_sc_hd__decap_3
XFILLER_23_20 VGND VGND VPWR VPWR sky130_fd_sc_hd__decap_6
XPHY_EDGE_ROW_4_Left_35 VGND VGND VPWR VPWR sky130_fd_sc_hd__decap_3
XFILLER_2_165 VPWR VGND VPWR VGND sky130_ef_sc_hd__decap_12
XFILLER_2_121 VPWR VGND VPWR VGND sky130_ef_sc_hd__decap_12
XFILLER_0_57 VPWR VGND VPWR VGND sky130_ef_sc_hd__decap_12
XFILLER_9_55 VGND VGND VPWR VPWR sky130_fd_sc_hd__fill_1
XFILLER_9_99 VGND VGND VPWR VPWR sky130_fd_sc_hd__fill_1
X_680_ net52 net24 _380_ VGND VGND VPWR VPWR _244_ sky130_fd_sc_hd__or3_1
XFILLER_29_30 VPWR VGND VPWR VGND sky130_ef_sc_hd__decap_12
X_594_ _159_ _161_ net39 VGND VGND VPWR VPWR _162_ sky130_fd_sc_hd__a21o_1
X_663_ _226_ _227_ net39 VGND VGND VPWR VPWR _228_ sky130_fd_sc_hd__a21oi_1
X_732_ net36 _286_ VGND VGND VPWR VPWR _292_ sky130_fd_sc_hd__nand2_1
XFILLER_13_3 VGND VGND VPWR VPWR sky130_fd_sc_hd__fill_1
XFILLER_6_78 VGND VGND VPWR VPWR sky130_fd_sc_hd__fill_2
XTAP_TAPCELL_ROW_27_148 VGND VPWR sky130_fd_sc_hd__tapvpwrvgnd_1
XFILLER_17_109 VGND VGND VPWR VPWR sky130_fd_sc_hd__decap_3
XFILLER_15_65 VGND VGND VPWR VPWR sky130_fd_sc_hd__decap_8
Xoutput7 net7 VGND VGND VPWR VPWR sine_out[14] sky130_fd_sc_hd__buf_2
X_646_ _046_ _086_ _166_ net46 VGND VGND VPWR VPWR _212_ sky130_fd_sc_hd__a31o_1
X_577_ _061_ _144_ net21 VGND VGND VPWR VPWR _145_ sky130_fd_sc_hd__a21oi_1
X_715_ _268_ _271_ _273_ _276_ VGND VGND VPWR VPWR _277_ sky130_fd_sc_hd__a22o_1
XFILLER_22_145 VGND VGND VPWR VPWR sky130_fd_sc_hd__fill_1
X_431_ net77 net74 VGND VGND VPWR VPWR _374_ sky130_fd_sc_hd__or2_2
XFILLER_13_145 VPWR VGND VPWR VGND sky130_ef_sc_hd__decap_12
XFILLER_3_79 VGND VGND VPWR VPWR sky130_fd_sc_hd__fill_1
X_500_ net26 _345_ _382_ _356_ _350_ VGND VGND VPWR VPWR _070_ sky130_fd_sc_hd__o32a_1
XFILLER_9_105 VGND VGND VPWR VPWR sky130_fd_sc_hd__decap_6
Xwire19 _137_ VGND VGND VPWR VPWR net19 sky130_fd_sc_hd__buf_1
X_629_ _076_ _184_ VGND VGND VPWR VPWR _195_ sky130_fd_sc_hd__nand2_1
XFILLER_12_88 VGND VGND VPWR VPWR sky130_fd_sc_hd__decap_4
XPHY_EDGE_ROW_20_Left_51 VGND VGND VPWR VPWR sky130_fd_sc_hd__decap_3
X_414_ net27 net67 VGND VGND VPWR VPWR _357_ sky130_fd_sc_hd__nand2_1
XFILLER_5_130 VGND VGND VPWR VPWR sky130_fd_sc_hd__decap_6
XTAP_TAPCELL_ROW_8_89 VGND VPWR sky130_fd_sc_hd__tapvpwrvgnd_1
XPHY_EDGE_ROW_21_Right_21 VGND VGND VPWR VPWR sky130_fd_sc_hd__decap_3
XPHY_EDGE_ROW_12_Right_12 VGND VGND VPWR VPWR sky130_fd_sc_hd__decap_3
XPHY_EDGE_ROW_30_Right_30 VGND VGND VPWR VPWR sky130_fd_sc_hd__decap_3
XFILLER_2_177 VGND VGND VPWR VPWR sky130_fd_sc_hd__decap_8
XFILLER_2_133 VGND VGND VPWR VPWR sky130_fd_sc_hd__decap_6
XFILLER_0_69 VPWR VGND VPWR VGND sky130_ef_sc_hd__decap_12
XFILLER_18_98 VGND VGND VPWR VPWR sky130_fd_sc_hd__decap_8
XFILLER_29_107 VGND VGND VPWR VPWR sky130_fd_sc_hd__decap_4
XFILLER_29_42 VPWR VGND VPWR VGND sky130_ef_sc_hd__decap_12
X_662_ _383_ _044_ _358_ _377_ VGND VGND VPWR VPWR _227_ sky130_fd_sc_hd__a211o_1
X_731_ _288_ _290_ net20 VGND VGND VPWR VPWR _291_ sky130_fd_sc_hd__a21oi_1
X_593_ _134_ _160_ VGND VGND VPWR VPWR _161_ sky130_fd_sc_hd__nand2_1
XPHY_EDGE_ROW_6_Right_6 VGND VGND VPWR VPWR sky130_fd_sc_hd__decap_3
X_645_ net38 _205_ _209_ _196_ _201_ VGND VGND VPWR VPWR _211_ sky130_fd_sc_hd__a311o_1
Xoutput8 net8 VGND VGND VPWR VPWR sine_out[15] sky130_fd_sc_hd__buf_2
X_576_ _383_ _120_ VGND VGND VPWR VPWR _144_ sky130_fd_sc_hd__nand2_1
X_714_ net22 _055_ _222_ _274_ _275_ VGND VGND VPWR VPWR _276_ sky130_fd_sc_hd__o32a_1
Xoutput10 net10 VGND VGND VPWR VPWR sine_out[2] sky130_fd_sc_hd__buf_2
X_430_ net45 net41 VGND VGND VPWR VPWR _373_ sky130_fd_sc_hd__nand2b_1
XFILLER_13_157 VGND VGND VPWR VPWR sky130_fd_sc_hd__decap_8
XFILLER_13_113 VGND VGND VPWR VPWR sky130_fd_sc_hd__decap_8
X_628_ _021_ _032_ _134_ net46 VGND VGND VPWR VPWR _194_ sky130_fd_sc_hd__o211ai_1
X_559_ _349_ net23 VGND VGND VPWR VPWR _128_ sky130_fd_sc_hd__nor2_1
XTAP_TAPCELL_ROW_11_100 VGND VPWR sky130_fd_sc_hd__tapvpwrvgnd_1
X_413_ net51 net70 VGND VGND VPWR VPWR _356_ sky130_fd_sc_hd__or2_2
XFILLER_23_55 VGND VGND VPWR VPWR sky130_fd_sc_hd__fill_1
XFILLER_3_3 VPWR VGND VPWR VGND sky130_ef_sc_hd__decap_12
XFILLER_0_15 VPWR VGND VPWR VGND sky130_ef_sc_hd__decap_12
XFILLER_9_13 VGND VGND VPWR VPWR sky130_fd_sc_hd__fill_1
XFILLER_9_57 VPWR VGND VPWR VGND sky130_ef_sc_hd__decap_12
XFILLER_18_44 VGND VGND VPWR VPWR sky130_fd_sc_hd__decap_8
XFILLER_29_87 VGND VGND VPWR VPWR sky130_fd_sc_hd__decap_3
XFILLER_29_54 VGND VGND VPWR VPWR sky130_fd_sc_hd__fill_2
XFILLER_28_185 VGND VGND VPWR VPWR sky130_fd_sc_hd__fill_1
X_592_ net46 net71 _348_ _045_ net42 VGND VGND VPWR VPWR _160_ sky130_fd_sc_hd__o311a_1
X_661_ net22 _225_ _369_ VGND VGND VPWR VPWR _226_ sky130_fd_sc_hd__or3b_1
X_730_ net31 _289_ VGND VGND VPWR VPWR _290_ sky130_fd_sc_hd__nand2_1
XFILLER_6_36 VGND VGND VPWR VPWR sky130_fd_sc_hd__decap_6
XFILLER_6_47 VGND VGND VPWR VPWR sky130_fd_sc_hd__fill_2
XFILLER_19_141 VGND VGND VPWR VPWR sky130_fd_sc_hd__fill_1
Xoutput11 net11 VGND VGND VPWR VPWR sine_out[3] sky130_fd_sc_hd__buf_2
X_644_ net38 _205_ _209_ _201_ VGND VGND VPWR VPWR _210_ sky130_fd_sc_hd__a31o_1
XFILLER_25_166 VGND VGND VPWR VPWR sky130_fd_sc_hd__fill_2
X_575_ _139_ _142_ net33 VGND VGND VPWR VPWR _143_ sky130_fd_sc_hd__o21a_1
XFILLER_15_23 VGND VGND VPWR VPWR sky130_fd_sc_hd__fill_1
Xoutput9 net9 VGND VGND VPWR VPWR sine_out[1] sky130_fd_sc_hd__buf_2
X_713_ net29 _023_ _063_ net41 VGND VGND VPWR VPWR _275_ sky130_fd_sc_hd__a31o_1
XFILLER_13_169 VGND VGND VPWR VPWR sky130_fd_sc_hd__fill_2
X_489_ _372_ _053_ _058_ _376_ net37 VGND VGND VPWR VPWR _059_ sky130_fd_sc_hd__a221o_1
X_558_ _349_ _381_ _036_ net57 VGND VGND VPWR VPWR _127_ sky130_fd_sc_hd__a31o_1
XFILLER_3_48 VGND VGND VPWR VPWR sky130_fd_sc_hd__decap_3
XFILLER_3_15 VGND VGND VPWR VPWR sky130_fd_sc_hd__decap_8
X_627_ net25 _190_ _193_ VGND VGND VPWR VPWR net12 sky130_fd_sc_hd__a21oi_1
XFILLER_8_162 VGND VGND VPWR VPWR sky130_fd_sc_hd__decap_4
XFILLER_12_46 VGND VGND VPWR VPWR sky130_fd_sc_hd__fill_2
X_412_ net59 _350_ _342_ net48 VGND VGND VPWR VPWR _355_ sky130_fd_sc_hd__a211o_1
XFILLER_23_67 VGND VGND VPWR VPWR sky130_fd_sc_hd__decap_6
XFILLER_0_27 VGND VGND VPWR VPWR sky130_fd_sc_hd__fill_1
XFILLER_29_3 VGND VGND VPWR VPWR sky130_fd_sc_hd__decap_8
XFILLER_9_25 VGND VGND VPWR VPWR sky130_fd_sc_hd__decap_4
XFILLER_9_69 VPWR VGND VPWR VGND sky130_ef_sc_hd__decap_12
XPHY_EDGE_ROW_8_Left_39 VGND VGND VPWR VPWR sky130_fd_sc_hd__decap_3
XFILLER_20_13 VGND VGND VPWR VPWR sky130_fd_sc_hd__fill_1
XFILLER_1_81 VPWR VGND VPWR VGND sky130_ef_sc_hd__decap_12
X_591_ net46 _151_ _158_ _026_ net42 VGND VGND VPWR VPWR _159_ sky130_fd_sc_hd__a221o_1
X_660_ net67 _383_ _359_ net59 VGND VGND VPWR VPWR _225_ sky130_fd_sc_hd__o211a_1
X_789_ net1 VGND VGND VPWR VPWR _015_ sky130_fd_sc_hd__inv_2
XFILLER_19_164 VGND VGND VPWR VPWR sky130_fd_sc_hd__decap_4
XFILLER_20_7 VGND VGND VPWR VPWR sky130_fd_sc_hd__decap_6
X_712_ _041_ _088_ _099_ _217_ net44 VGND VGND VPWR VPWR _274_ sky130_fd_sc_hd__o311a_1
Xoutput12 net12 VGND VGND VPWR VPWR sine_out[4] sky130_fd_sc_hd__buf_2
X_643_ net46 _158_ _206_ _208_ net32 VGND VGND VPWR VPWR _209_ sky130_fd_sc_hd__a311o_1
X_574_ _035_ _141_ _140_ net49 VGND VGND VPWR VPWR _142_ sky130_fd_sc_hd__o211a_1
XFILLER_30_181 VGND VGND VPWR VPWR sky130_fd_sc_hd__decap_4
XFILLER_22_137 VGND VGND VPWR VPWR sky130_fd_sc_hd__decap_3
X_488_ net75 net26 _018_ _054_ VGND VGND VPWR VPWR _058_ sky130_fd_sc_hd__a31o_1
X_557_ _336_ _375_ _051_ VGND VGND VPWR VPWR _126_ sky130_fd_sc_hd__a21o_1
X_626_ _181_ _186_ _192_ net35 VGND VGND VPWR VPWR _193_ sky130_fd_sc_hd__o211a_1
XFILLER_12_36 VGND VGND VPWR VPWR sky130_fd_sc_hd__decap_4
XFILLER_8_141 VGND VGND VPWR VPWR sky130_fd_sc_hd__decap_6
XFILLER_8_174 VPWR VGND VPWR VGND sky130_ef_sc_hd__decap_12
X_411_ net65 net74 net78 VGND VGND VPWR VPWR _354_ sky130_fd_sc_hd__and3b_2
X_609_ _380_ _032_ VGND VGND VPWR VPWR _176_ sky130_fd_sc_hd__nor2_1
XFILLER_23_57 VGND VGND VPWR VPWR sky130_fd_sc_hd__fill_2
XPHY_EDGE_ROW_24_Left_55 VGND VGND VPWR VPWR sky130_fd_sc_hd__decap_3
XFILLER_18_79 VGND VGND VPWR VPWR sky130_fd_sc_hd__decap_4
XFILLER_1_93 VPWR VGND VPWR VGND sky130_ef_sc_hd__decap_12
X_590_ _089_ _157_ VGND VGND VPWR VPWR _158_ sky130_fd_sc_hd__nand2_1
X_788_ net1 VGND VGND VPWR VPWR _014_ sky130_fd_sc_hd__inv_2
Xoutput13 net13 VGND VGND VPWR VPWR sine_out[5] sky130_fd_sc_hd__buf_2
XPHY_EDGE_ROW_11_Left_42 VGND VGND VPWR VPWR sky130_fd_sc_hd__decap_3
XPHY_EDGE_ROW_28_Right_28 VGND VGND VPWR VPWR sky130_fd_sc_hd__decap_3
X_573_ _380_ _052_ VGND VGND VPWR VPWR _141_ sky130_fd_sc_hd__or2_1
XPHY_EDGE_ROW_19_Right_19 VGND VGND VPWR VPWR sky130_fd_sc_hd__decap_3
XTAP_TAPCELL_ROW_18_119 VGND VPWR sky130_fd_sc_hd__tapvpwrvgnd_1
X_642_ _339_ _379_ _207_ _357_ net29 VGND VGND VPWR VPWR _208_ sky130_fd_sc_hd__o2111a_1
X_711_ net37 _272_ VGND VGND VPWR VPWR _273_ sky130_fd_sc_hd__nor2_1
XFILLER_22_116 VGND VGND VPWR VPWR sky130_fd_sc_hd__decap_3
XFILLER_26_79 VGND VGND VPWR VPWR sky130_fd_sc_hd__decap_4
XFILLER_26_13 VGND VGND VPWR VPWR sky130_fd_sc_hd__fill_2
X_625_ _187_ _191_ net20 VGND VGND VPWR VPWR _192_ sky130_fd_sc_hd__a21o_1
X_556_ net34 _118_ _124_ VGND VGND VPWR VPWR _125_ sky130_fd_sc_hd__or3_1
X_487_ net78 net74 net66 VGND VGND VPWR VPWR _057_ sky130_fd_sc_hd__a21boi_2
XTAP_TAPCELL_ROW_20_125 VGND VPWR sky130_fd_sc_hd__tapvpwrvgnd_1
X_410_ net75 net70 VGND VGND VPWR VPWR _353_ sky130_fd_sc_hd__nand2_2
XFILLER_10_108 VGND VGND VPWR VPWR sky130_fd_sc_hd__decap_3
X_608_ _148_ _172_ _173_ _174_ VGND VGND VPWR VPWR _175_ sky130_fd_sc_hd__a22oi_1
X_539_ _106_ _107_ _372_ VGND VGND VPWR VPWR _108_ sky130_fd_sc_hd__o21a_1
XFILLER_5_178 VGND VGND VPWR VPWR sky130_fd_sc_hd__decap_8
Xfanout70 net72 VGND VGND VPWR VPWR net70 sky130_fd_sc_hd__clkbuf_8
XFILLER_0_29 VPWR VGND VPWR VGND sky130_ef_sc_hd__decap_12
XFILLER_1_181 VGND VGND VPWR VPWR sky130_fd_sc_hd__decap_4
XTAP_TAPCELL_ROW_9_92 VGND VPWR sky130_fd_sc_hd__tapvpwrvgnd_1
XFILLER_18_25 VGND VGND VPWR VPWR sky130_fd_sc_hd__decap_3
XFILLER_1_3 VPWR VGND VPWR VGND sky130_ef_sc_hd__decap_12
XFILLER_29_57 VGND VGND VPWR VPWR sky130_fd_sc_hd__decap_8
X_787_ net1 VGND VGND VPWR VPWR _013_ sky130_fd_sc_hd__inv_2
XFILLER_19_111 VGND VGND VPWR VPWR sky130_fd_sc_hd__fill_1
XFILLER_15_15 VGND VGND VPWR VPWR sky130_fd_sc_hd__decap_8
X_572_ net67 _001_ net58 VGND VGND VPWR VPWR _140_ sky130_fd_sc_hd__a21o_1
Xoutput14 net14 VGND VGND VPWR VPWR sine_out[6] sky130_fd_sc_hd__buf_2
X_641_ net77 _342_ VGND VGND VPWR VPWR _207_ sky130_fd_sc_hd__nand2_1
X_710_ _356_ _179_ net21 VGND VGND VPWR VPWR _272_ sky130_fd_sc_hd__a21oi_1
XFILLER_30_150 VPWR VGND VPWR VGND sky130_ef_sc_hd__decap_12
XTAP_TAPCELL_ROW_23_134 VGND VPWR sky130_fd_sc_hd__tapvpwrvgnd_1
XFILLER_21_161 VGND VGND VPWR VPWR sky130_fd_sc_hd__decap_6
X_555_ _357_ _376_ _123_ _121_ _372_ VGND VGND VPWR VPWR _124_ sky130_fd_sc_hd__a32o_1
XFILLER_12_183 VGND VGND VPWR VPWR sky130_fd_sc_hd__decap_3
X_486_ net66 _353_ VGND VGND VPWR VPWR _056_ sky130_fd_sc_hd__nand2_1
X_624_ _346_ _361_ net23 net44 VGND VGND VPWR VPWR _191_ sky130_fd_sc_hd__a31o_1
XTAP_TAPCELL_ROW_20_126 VGND VPWR sky130_fd_sc_hd__tapvpwrvgnd_1
X_607_ _383_ _044_ net29 VGND VGND VPWR VPWR _174_ sky130_fd_sc_hd__a21oi_1
XFILLER_5_113 VGND VGND VPWR VPWR sky130_fd_sc_hd__fill_2
X_538_ _065_ _089_ net27 VGND VGND VPWR VPWR _107_ sky130_fd_sc_hd__a21oi_1
XFILLER_23_15 VGND VGND VPWR VPWR sky130_fd_sc_hd__fill_2
X_469_ _020_ _027_ _028_ _029_ _039_ VGND VGND VPWR VPWR _040_ sky130_fd_sc_hd__a32o_1
Xfanout71 net72 VGND VGND VPWR VPWR net71 sky130_fd_sc_hd__clkbuf_4
Xfanout60 tcout\[3\] VGND VGND VPWR VPWR net60 sky130_fd_sc_hd__dlymetal6s2s_1
XTAP_TAPCELL_ROW_0_62 VGND VPWR sky130_fd_sc_hd__tapvpwrvgnd_1
XTAP_TAPCELL_ROW_9_93 VGND VPWR sky130_fd_sc_hd__tapvpwrvgnd_1
XFILLER_27_3 VGND VGND VPWR VPWR sky130_fd_sc_hd__decap_3
XFILLER_29_14 VPWR VGND VPWR VGND sky130_ef_sc_hd__decap_12
XFILLER_28_134 VGND VGND VPWR VPWR sky130_fd_sc_hd__decap_3
XFILLER_28_123 VGND VGND VPWR VPWR sky130_fd_sc_hd__fill_2
XFILLER_20_38 VPWR VGND VPWR VGND sky130_ef_sc_hd__decap_12
XFILLER_1_51 VGND VGND VPWR VPWR sky130_fd_sc_hd__decap_4
X_786_ net1 VGND VGND VPWR VPWR _012_ sky130_fd_sc_hd__inv_2
XFILLER_19_80 VGND VGND VPWR VPWR sky130_fd_sc_hd__fill_1
XFILLER_10_93 VGND VGND VPWR VPWR sky130_fd_sc_hd__fill_2
XFILLER_25_126 VGND VGND VPWR VPWR sky130_fd_sc_hd__decap_4
XFILLER_15_38 VGND VGND VPWR VPWR sky130_fd_sc_hd__decap_3
XTAP_TAPCELL_ROW_6_83 VGND VPWR sky130_fd_sc_hd__tapvpwrvgnd_1
XTAP_TAPCELL_ROW_26_143 VGND VPWR sky130_fd_sc_hd__tapvpwrvgnd_1
XFILLER_24_181 VGND VGND VPWR VPWR sky130_fd_sc_hd__decap_4
X_571_ _119_ _138_ net31 VGND VGND VPWR VPWR _139_ sky130_fd_sc_hd__o21a_1
X_640_ _343_ _370_ VGND VGND VPWR VPWR _206_ sky130_fd_sc_hd__and2_1
XFILLER_16_104 VPWR VGND VPWR VGND sky130_ef_sc_hd__decap_12
XPHY_EDGE_ROW_1_Right_1 VGND VGND VPWR VPWR sky130_fd_sc_hd__decap_3
Xoutput15 net15 VGND VGND VPWR VPWR sine_out[7] sky130_fd_sc_hd__buf_2
XFILLER_30_162 VGND VGND VPWR VPWR sky130_fd_sc_hd__decap_6
X_769_ net35 _325_ _324_ VGND VGND VPWR VPWR net6 sky130_fd_sc_hd__mux2_1
XFILLER_22_129 VGND VGND VPWR VPWR sky130_fd_sc_hd__decap_8
XFILLER_21_70 VGND VGND VPWR VPWR sky130_fd_sc_hd__decap_8
XTAP_TAPCELL_ROW_23_135 VGND VPWR sky130_fd_sc_hd__tapvpwrvgnd_1
XFILLER_16_92 VGND VGND VPWR VPWR sky130_fd_sc_hd__decap_4
X_554_ net23 _122_ VGND VGND VPWR VPWR _123_ sky130_fd_sc_hd__nand2_1
X_485_ net51 net75 VGND VGND VPWR VPWR _055_ sky130_fd_sc_hd__and2b_2
X_623_ _186_ _189_ _181_ VGND VGND VPWR VPWR _190_ sky130_fd_sc_hd__a21oi_1
XFILLER_8_166 VGND VGND VPWR VPWR sky130_fd_sc_hd__fill_1
XTAP_TAPCELL_ROW_20_127 VGND VPWR sky130_fd_sc_hd__tapvpwrvgnd_1
XFILLER_5_125 VGND VGND VPWR VPWR sky130_fd_sc_hd__fill_2
XFILLER_5_169 VGND VGND VPWR VPWR sky130_fd_sc_hd__fill_2
X_606_ net63 _383_ _368_ VGND VGND VPWR VPWR _173_ sky130_fd_sc_hd__a21o_1
X_468_ net31 _034_ _037_ _033_ VGND VGND VPWR VPWR _039_ sky130_fd_sc_hd__a31o_1
X_537_ _378_ _022_ VGND VGND VPWR VPWR _106_ sky130_fd_sc_hd__nor2_1
X_399_ net65 net73 net56 VGND VGND VPWR VPWR _342_ sky130_fd_sc_hd__nor3b_2
XFILLER_23_49 VGND VGND VPWR VPWR sky130_fd_sc_hd__decap_6
XFILLER_2_139 VGND VGND VPWR VPWR sky130_fd_sc_hd__fill_1
XFILLER_9_29 VGND VGND VPWR VPWR sky130_fd_sc_hd__fill_1
Xfanout50 tcout\[4\] VGND VGND VPWR VPWR net50 sky130_fd_sc_hd__dlymetal6s2s_1
Xfanout72 tcout\[1\] VGND VGND VPWR VPWR net72 sky130_fd_sc_hd__clkbuf_2
Xfanout61 net62 VGND VGND VPWR VPWR net61 sky130_fd_sc_hd__clkbuf_8
XFILLER_1_161 VGND VGND VPWR VPWR sky130_fd_sc_hd__decap_6
XTAP_TAPCELL_ROW_0_63 VGND VPWR sky130_fd_sc_hd__tapvpwrvgnd_1
XTAP_TAPCELL_ROW_9_94 VGND VPWR sky130_fd_sc_hd__tapvpwrvgnd_1
XPHY_EDGE_ROW_28_Left_59 VGND VGND VPWR VPWR sky130_fd_sc_hd__decap_3
XFILLER_19_113 VPWR VGND VPWR VGND sky130_ef_sc_hd__decap_12
XFILLER_10_72 VGND VGND VPWR VPWR sky130_fd_sc_hd__fill_1
XTAP_TAPCELL_ROW_29_152 VGND VPWR sky130_fd_sc_hd__tapvpwrvgnd_1
X_785_ net1 VGND VGND VPWR VPWR _011_ sky130_fd_sc_hd__inv_2
XTAP_TAPCELL_ROW_6_84 VGND VPWR sky130_fd_sc_hd__tapvpwrvgnd_1
Xoutput16 net16 VGND VGND VPWR VPWR sine_out[8] sky130_fd_sc_hd__buf_2
XTAP_TAPCELL_ROW_26_144 VGND VPWR sky130_fd_sc_hd__tapvpwrvgnd_1
X_570_ net58 _345_ net19 VGND VGND VPWR VPWR _138_ sky130_fd_sc_hd__nor3_1
XFILLER_16_138 VGND VGND VPWR VPWR sky130_fd_sc_hd__fill_2
XFILLER_16_116 VPWR VGND VPWR VGND sky130_ef_sc_hd__decap_12
X_699_ _260_ _261_ _029_ VGND VGND VPWR VPWR _262_ sky130_fd_sc_hd__o21a_1
X_768_ net20 _248_ net25 VGND VGND VPWR VPWR _325_ sky130_fd_sc_hd__o21a_1
Xclkbuf_0_clk clk VGND VGND VPWR VPWR clknet_0_clk sky130_fd_sc_hd__clkbuf_16
XFILLER_22_108 VGND VGND VPWR VPWR sky130_fd_sc_hd__decap_8
XFILLER_30_185 VGND VGND VPWR VPWR sky130_fd_sc_hd__fill_1
XFILLER_30_141 VGND VGND VPWR VPWR sky130_fd_sc_hd__decap_6
XPHY_EDGE_ROW_24_Right_24 VGND VGND VPWR VPWR sky130_fd_sc_hd__decap_3
XTAP_TAPCELL_ROW_23_136 VGND VPWR sky130_fd_sc_hd__tapvpwrvgnd_1
XFILLER_21_130 VGND VGND VPWR VPWR sky130_fd_sc_hd__decap_8