*SPEF "ieee 1481-1999"
*DESIGN "counter"
*DATE "15:50:33 Monday March 03, 2025"
*VENDOR "The OpenROAD Project"
*PROGRAM "OpenROAD"
*VERSION "edf00dff99f6c40d67a30c0e22a8191c5d2ed9d6"
*DESIGN_FLOW "NAME_SCOPE LOCAL" "PIN_CAP NONE"
*DIVIDER /
*DELIMITER :
*BUS_DELIMITER []
*T_UNIT 1 NS
*C_UNIT 1 PF
*R_UNIT 1 OHM
*L_UNIT 1 HENRY

*NAME_MAP
*1 addr0[0]
*2 addr0[1]
*3 addr0[2]
*4 addr0[3]
*5 addr0[4]
*6 addr0[5]
*7 addr0[6]
*8 addr0[7]
*9 clk
*10 csb0
*11 din0[0]
*12 din0[10]
*13 din0[11]
*14 din0[12]
*15 din0[13]
*16 din0[14]
*17 din0[15]
*18 din0[1]
*19 din0[2]
*20 din0[3]
*21 din0[4]
*22 din0[5]
*23 din0[6]
*24 din0[7]
*25 din0[8]
*26 din0[9]
*27 rst
*28 sine_out[0]
*29 sine_out[10]
*30 sine_out[11]
*31 sine_out[12]
*32 sine_out[13]
*33 sine_out[14]
*34 sine_out[15]
*35 sine_out[1]
*36 sine_out[2]
*37 sine_out[3]
*38 sine_out[4]
*39 sine_out[5]
*40 sine_out[6]
*41 sine_out[7]
*42 sine_out[8]
*43 sine_out[9]
*46 _000_
*47 _001_
*48 _002_
*49 _003_
*50 _004_
*51 _005_
*52 _006_
*53 _007_
*54 _008_
*55 _009_
*56 _010_
*57 _011_
*58 _012_
*59 _013_
*60 _014_
*61 _015_
*62 _016_
*63 _017_
*64 _018_
*65 _019_
*66 _020_
*67 _021_
*68 _022_
*69 _023_
*70 _024_
*71 _025_
*72 _026_
*73 _027_
*74 _028_
*75 _029_
*76 _030_
*77 _031_
*78 _032_
*79 _033_
*80 _034_
*81 _035_
*82 _036_
*83 _037_
*84 _038_
*85 clknet_0_clk
*86 clknet_1_0__leaf_clk
*87 clknet_1_1__leaf_clk
*88 net1
*89 net10
*90 net11
*91 net12
*92 net13
*93 net14
*94 net15
*95 net16
*96 net17
*97 net18
*98 net19
*99 net2
*100 net20
*101 net21
*102 net22
*103 net23
*104 net24
*105 net25
*106 net26
*107 net3
*108 net4
*109 net5
*110 net6
*111 net7
*112 net8
*113 net9
*114 sine_out_temp\[0\]
*115 sine_out_temp\[10\]
*116 sine_out_temp\[11\]
*117 sine_out_temp\[12\]
*118 sine_out_temp\[13\]
*119 sine_out_temp\[14\]
*120 sine_out_temp\[15\]
*121 sine_out_temp\[1\]
*122 sine_out_temp\[2\]
*123 sine_out_temp\[3\]
*124 sine_out_temp\[4\]
*125 sine_out_temp\[5\]
*126 sine_out_temp\[6\]
*127 sine_out_temp\[7\]
*128 sine_out_temp\[8\]
*129 sine_out_temp\[9\]
*130 tcout\[0\]
*131 tcout\[1\]
*132 tcout\[2\]
*133 tcout\[3\]
*134 tcout\[4\]
*135 tcout\[5\]
*136 tcout\[6\]
*137 tcout\[7\]
*138 ANTENNA_1
*139 ANTENNA_10
*140 ANTENNA_11
*141 ANTENNA_12
*142 ANTENNA_13
*143 ANTENNA_14
*144 ANTENNA_15
*145 ANTENNA_16
*146 ANTENNA_17
*147 ANTENNA_2
*148 ANTENNA_3
*149 ANTENNA_4
*150 ANTENNA_5
*151 ANTENNA_6
*152 ANTENNA_7
*153 ANTENNA_8
*154 ANTENNA_9
*155 FILLER_0_1056
*156 FILLER_0_1068
*157 FILLER_0_1080
*158 FILLER_0_3
*159 FILLER_100_1056
*160 FILLER_100_1068
*161 FILLER_100_1080
*162 FILLER_100_3
*163 FILLER_101_1056
*164 FILLER_101_1068
*165 FILLER_101_1080
*166 FILLER_101_3
*167 FILLER_102_1056
*168 FILLER_102_1068
*169 FILLER_102_1080
*170 FILLER_102_3
*171 FILLER_103_1056
*172 FILLER_103_1068
*173 FILLER_103_1080
*174 FILLER_103_3
*175 FILLER_104_1056
*176 FILLER_104_1068
*177 FILLER_104_1080
*178 FILLER_104_3
*179 FILLER_105_1056
*180 FILLER_105_1068
*181 FILLER_105_1080
*182 FILLER_105_3
*183 FILLER_106_1005
*184 FILLER_106_1009
*185 FILLER_106_1021
*186 FILLER_106_1033
*187 FILLER_106_1037
*188 FILLER_106_1049
*189 FILLER_106_1061
*190 FILLER_106_1065
*191 FILLER_106_109
*192 FILLER_106_113
*193 FILLER_106_125
*194 FILLER_106_137
*195 FILLER_106_141
*196 FILLER_106_15
*197 FILLER_106_153
*198 FILLER_106_165
*199 FILLER_106_169
*200 FILLER_106_181
*201 FILLER_106_193
*202 FILLER_106_197
*203 FILLER_106_209
*204 FILLER_106_221
*205 FILLER_106_225
*206 FILLER_106_237
*207 FILLER_106_249
*208 FILLER_106_253
*209 FILLER_106_265
*210 FILLER_106_27
*211 FILLER_106_277
*212 FILLER_106_281
*213 FILLER_106_29
*214 FILLER_106_293
*215 FILLER_106_3
*216 FILLER_106_305
*217 FILLER_106_309
*218 FILLER_106_321
*219 FILLER_106_333
*220 FILLER_106_337
*221 FILLER_106_349
*222 FILLER_106_361
*223 FILLER_106_365
*224 FILLER_106_377
*225 FILLER_106_389
*226 FILLER_106_393
*227 FILLER_106_405
*228 FILLER_106_41
*229 FILLER_106_417
*230 FILLER_106_421
*231 FILLER_106_433
*232 FILLER_106_445
*233 FILLER_106_449
*234 FILLER_106_461
*235 FILLER_106_473
*236 FILLER_106_477
*237 FILLER_106_489
*238 FILLER_106_501
*239 FILLER_106_505
*240 FILLER_106_53
*241 FILLER_106_531
*242 FILLER_106_533
*243 FILLER_106_545
*244 FILLER_106_557
*245 FILLER_106_561
*246 FILLER_106_57
*247 FILLER_106_573
*248 FILLER_106_585
*249 FILLER_106_609
*250 FILLER_106_615
*251 FILLER_106_617
*252 FILLER_106_629
*253 FILLER_106_641
*254 FILLER_106_645
*255 FILLER_106_657
*256 FILLER_106_669
*257 FILLER_106_673
*258 FILLER_106_685
*259 FILLER_106_69
*260 FILLER_106_697
*261 FILLER_106_701
*262 FILLER_106_713
*263 FILLER_106_725
*264 FILLER_106_729
*265 FILLER_106_741
*266 FILLER_106_753
*267 FILLER_106_757
*268 FILLER_106_769
*269 FILLER_106_781
*270 FILLER_106_785
*271 FILLER_106_809
*272 FILLER_106_81
*273 FILLER_106_813
*274 FILLER_106_825
*275 FILLER_106_837
*276 FILLER_106_841
*277 FILLER_106_85
*278 FILLER_106_853
*279 FILLER_106_862
*280 FILLER_106_869
*281 FILLER_106_875
*282 FILLER_106_879
*283 FILLER_106_891
*284 FILLER_106_895
*285 FILLER_106_897
*286 FILLER_106_908
*287 FILLER_106_912
*288 FILLER_106_925
*289 FILLER_106_948
*290 FILLER_106_953
*291 FILLER_106_965
*292 FILLER_106_97
*293 FILLER_106_977
*294 FILLER_106_981
*295 FILLER_106_993
*296 FILLER_107_1001
*297 FILLER_107_1007
*298 FILLER_107_1009
*299 FILLER_107_1021
*300 FILLER_107_1033
*301 FILLER_107_1045
*302 FILLER_107_105
*303 FILLER_107_1057
*304 FILLER_107_1063
*305 FILLER_107_1065
*306 FILLER_107_111
*307 FILLER_107_113
*308 FILLER_107_125
*309 FILLER_107_137
*310 FILLER_107_149
*311 FILLER_107_15
*312 FILLER_107_161
*313 FILLER_107_167
*314 FILLER_107_169
*315 FILLER_107_181
*316 FILLER_107_193
*317 FILLER_107_205
*318 FILLER_107_217
*319 FILLER_107_223
*320 FILLER_107_225
*321 FILLER_107_253
*322 FILLER_107_265
*323 FILLER_107_27
*324 FILLER_107_277
*325 FILLER_107_281
*326 FILLER_107_293
*327 FILLER_107_3
*328 FILLER_107_301
*329 FILLER_107_307
*330 FILLER_107_315
*331 FILLER_107_320
*332 FILLER_107_332
*333 FILLER_107_337
*334 FILLER_107_349
*335 FILLER_107_361
*336 FILLER_107_373
*337 FILLER_107_385
*338 FILLER_107_39
*339 FILLER_107_391
*340 FILLER_107_393
*341 FILLER_107_405
*342 FILLER_107_417
*343 FILLER_107_429
*344 FILLER_107_441
*345 FILLER_107_447
*346 FILLER_107_449
*347 FILLER_107_461
*348 FILLER_107_473
*349 FILLER_107_485
*350 FILLER_107_497
*351 FILLER_107_503
*352 FILLER_107_505
*353 FILLER_107_51
*354 FILLER_107_522
*355 FILLER_107_534
*356 FILLER_107_546
*357 FILLER_107_55
*358 FILLER_107_558
*359 FILLER_107_561
*360 FILLER_107_57
*361 FILLER_107_573
*362 FILLER_107_585
*363 FILLER_107_597
*364 FILLER_107_609
*365 FILLER_107_615
*366 FILLER_107_617
*367 FILLER_107_629
*368 FILLER_107_641
*369 FILLER_107_653
*370 FILLER_107_665
*371 FILLER_107_671
*372 FILLER_107_673
*373 FILLER_107_685
*374 FILLER_107_69
*375 FILLER_107_697
*376 FILLER_107_709
*377 FILLER_107_721
*378 FILLER_107_727
*379 FILLER_107_729
*380 FILLER_107_741
*381 FILLER_107_753
*382 FILLER_107_765
*383 FILLER_107_777
*384 FILLER_107_783
*385 FILLER_107_785
*386 FILLER_107_797
*387 FILLER_107_809
*388 FILLER_107_81
*389 FILLER_107_821
*390 FILLER_107_828
*391 FILLER_107_844
*392 FILLER_107_848
*393 FILLER_107_897
*394 FILLER_107_93
*395 FILLER_107_944
*396 FILLER_107_953
*397 FILLER_107_965
*398 FILLER_107_977
*399 FILLER_107_989
*400 FILLER_108_1005
*401 FILLER_108_1017
*402 FILLER_108_1029
*403 FILLER_108_1035
*404 FILLER_108_1037
*405 FILLER_108_1049
*406 FILLER_108_1061
*407 FILLER_108_1073
*408 FILLER_108_109
*409 FILLER_108_121
*410 FILLER_108_133
*411 FILLER_108_139
*412 FILLER_108_141
*413 FILLER_108_15
*414 FILLER_108_153
*415 FILLER_108_165
*416 FILLER_108_177
*417 FILLER_108_189
*418 FILLER_108_195
*419 FILLER_108_197
*420 FILLER_108_209
*421 FILLER_108_237
*422 FILLER_108_249
*423 FILLER_108_253
*424 FILLER_108_265
*425 FILLER_108_27
*426 FILLER_108_277
*427 FILLER_108_289
*428 FILLER_108_29
*429 FILLER_108_3
*430 FILLER_108_301
*431 FILLER_108_307
*432 FILLER_108_309
*433 FILLER_108_321
*434 FILLER_108_333
*435 FILLER_108_345
*436 FILLER_108_357
*437 FILLER_108_363
*438 FILLER_108_365
*439 FILLER_108_377
*440 FILLER_108_389
*441 FILLER_108_401
*442 FILLER_108_41
*443 FILLER_108_413
*444 FILLER_108_419
*445 FILLER_108_421
*446 FILLER_108_433
*447 FILLER_108_445
*448 FILLER_108_457
*449 FILLER_108_469
*450 FILLER_108_475
*451 FILLER_108_477
*452 FILLER_108_489
*453 FILLER_108_501
*454 FILLER_108_513
*455 FILLER_108_525
*456 FILLER_108_53
*457 FILLER_108_531
*458 FILLER_108_533
*459 FILLER_108_545
*460 FILLER_108_557
*461 FILLER_108_569
*462 FILLER_108_581
*463 FILLER_108_587
*464 FILLER_108_589
*465 FILLER_108_601
*466 FILLER_108_613
*467 FILLER_108_625
*468 FILLER_108_637
*469 FILLER_108_643
*470 FILLER_108_645
*471 FILLER_108_65
*472 FILLER_108_657
*473 FILLER_108_669
*474 FILLER_108_681
*475 FILLER_108_693
*476 FILLER_108_699
*477 FILLER_108_701
*478 FILLER_108_713
*479 FILLER_108_725
*480 FILLER_108_737
*481 FILLER_108_749
*482 FILLER_108_755
*483 FILLER_108_757
*484 FILLER_108_769
*485 FILLER_108_77
*486 FILLER_108_781
*487 FILLER_108_793
*488 FILLER_108_805
*489 FILLER_108_811
*490 FILLER_108_813
*491 FILLER_108_821
*492 FILLER_108_83
*493 FILLER_108_85
*494 FILLER_108_867
*495 FILLER_108_869
*496 FILLER_108_877
*497 FILLER_108_903
*498 FILLER_108_915
*499 FILLER_108_923
*500 FILLER_108_925
*501 FILLER_108_937
*502 FILLER_108_949
*503 FILLER_108_961
*504 FILLER_108_97
*505 FILLER_108_973
*506 FILLER_108_979
*507 FILLER_108_981
*508 FILLER_108_993
*509 FILLER_109_1001
*510 FILLER_109_1007
*511 FILLER_109_1009
*512 FILLER_109_1021
*513 FILLER_109_1033
*514 FILLER_109_1045
*515 FILLER_109_105
*516 FILLER_109_1057
*517 FILLER_109_1063
*518 FILLER_109_1065
*519 FILLER_109_111
*520 FILLER_109_113
*521 FILLER_109_125
*522 FILLER_109_137
*523 FILLER_109_149
*524 FILLER_109_161
*525 FILLER_109_167
*526 FILLER_109_169
*527 FILLER_109_181
*528 FILLER_109_19
*529 FILLER_109_193
*530 FILLER_109_205
*531 FILLER_109_217
*532 FILLER_109_223
*533 FILLER_109_225
*534 FILLER_109_237
*535 FILLER_109_249
*536 FILLER_109_261
*537 FILLER_109_273
*538 FILLER_109_279
*539 FILLER_109_281
*540 FILLER_109_293
*541 FILLER_109_305
*542 FILLER_109_31
*543 FILLER_109_317
*544 FILLER_109_329
*545 FILLER_109_335
*546 FILLER_109_337
*547 FILLER_109_349
*548 FILLER_109_361
*549 FILLER_109_373
*550 FILLER_109_385
*551 FILLER_109_391
*552 FILLER_109_393
*553 FILLER_109_405
*554 FILLER_109_417
*555 FILLER_109_429
*556 FILLER_109_43
*557 FILLER_109_441
*558 FILLER_109_447
*559 FILLER_109_449
*560 FILLER_109_461
*561 FILLER_109_473
*562 FILLER_109_485
*563 FILLER_109_497
*564 FILLER_109_503
*565 FILLER_109_505
*566 FILLER_109_517
*567 FILLER_109_529
*568 FILLER_109_541
*569 FILLER_109_55
*570 FILLER_109_553
*571 FILLER_109_559
*572 FILLER_109_561
*573 FILLER_109_57
*574 FILLER_109_573
*575 FILLER_109_585
*576 FILLER_109_597
*577 FILLER_109_609
*578 FILLER_109_615
*579 FILLER_109_617
*580 FILLER_109_629
*581 FILLER_109_641
*582 FILLER_109_653
*583 FILLER_109_665
*584 FILLER_109_671
*585 FILLER_109_673
*586 FILLER_109_685
*587 FILLER_109_69
*588 FILLER_109_697
*589 FILLER_109_7
*590 FILLER_109_709
*591 FILLER_109_721
*592 FILLER_109_727
*593 FILLER_109_729
*594 FILLER_109_741
*595 FILLER_109_753
*596 FILLER_109_765
*597 FILLER_109_777
*598 FILLER_109_783
*599 FILLER_109_785
*600 FILLER_109_797
*601 FILLER_109_809
*602 FILLER_109_81
*603 FILLER_109_821
*604 FILLER_109_833
*605 FILLER_109_839
*606 FILLER_109_841
*607 FILLER_109_853
*608 FILLER_109_865
*609 FILLER_109_877
*610 FILLER_109_889
*611 FILLER_109_895
*612 FILLER_109_897
*613 FILLER_109_909
*614 FILLER_109_921
*615 FILLER_109_93
*616 FILLER_109_933
*617 FILLER_109_945
*618 FILLER_109_951
*619 FILLER_109_953
*620 FILLER_109_965
*621 FILLER_109_977
*622 FILLER_109_989
*623 FILLER_10_1056
*624 FILLER_10_1068
*625 FILLER_10_1080
*626 FILLER_10_3
*627 FILLER_110_1005
*628 FILLER_110_1017
*629 FILLER_110_1029
*630 FILLER_110_1035
*631 FILLER_110_1037
*632 FILLER_110_1049
*633 FILLER_110_1061
*634 FILLER_110_1073
*635 FILLER_110_109
*636 FILLER_110_121
*637 FILLER_110_133
*638 FILLER_110_139
*639 FILLER_110_141
*640 FILLER_110_153
*641 FILLER_110_165
*642 FILLER_110_177
*643 FILLER_110_189
*644 FILLER_110_195
*645 FILLER_110_197
*646 FILLER_110_209
*647 FILLER_110_21
*648 FILLER_110_221
*649 FILLER_110_233
*650 FILLER_110_245
*651 FILLER_110_251
*652 FILLER_110_253
*653 FILLER_110_265
*654 FILLER_110_27
*655 FILLER_110_277
*656 FILLER_110_289
*657 FILLER_110_29
*658 FILLER_110_301
*659 FILLER_110_307
*660 FILLER_110_309
*661 FILLER_110_321
*662 FILLER_110_333
*663 FILLER_110_345
*664 FILLER_110_357
*665 FILLER_110_363
*666 FILLER_110_365
*667 FILLER_110_377
*668 FILLER_110_389
*669 FILLER_110_401
*670 FILLER_110_41
*671 FILLER_110_413
*672 FILLER_110_419
*673 FILLER_110_421
*674 FILLER_110_433
*675 FILLER_110_445
*676 FILLER_110_457
*677 FILLER_110_469
*678 FILLER_110_475
*679 FILLER_110_477
*680 FILLER_110_489
*681 FILLER_110_501
*682 FILLER_110_513
*683 FILLER_110_525
*684 FILLER_110_53
*685 FILLER_110_531
*686 FILLER_110_533
*687 FILLER_110_545
*688 FILLER_110_557
*689 FILLER_110_569
*690 FILLER_110_581
*691 FILLER_110_587
*692 FILLER_110_589
*693 FILLER_110_601
*694 FILLER_110_613
*695 FILLER_110_625
*696 FILLER_110_637
*697 FILLER_110_643
*698 FILLER_110_645
*699 FILLER_110_65
*700 FILLER_110_657
*701 FILLER_110_669
*702 FILLER_110_681
*703 FILLER_110_693
*704 FILLER_110_699
*705 FILLER_110_701
*706 FILLER_110_713
*707 FILLER_110_725
*708 FILLER_110_737
*709 FILLER_110_749
*710 FILLER_110_755
*711 FILLER_110_757
*712 FILLER_110_769
*713 FILLER_110_77
*714 FILLER_110_781
*715 FILLER_110_793
*716 FILLER_110_805
*717 FILLER_110_811
*718 FILLER_110_813
*719 FILLER_110_825
*720 FILLER_110_83
*721 FILLER_110_837
*722 FILLER_110_849
*723 FILLER_110_85
*724 FILLER_110_861
*725 FILLER_110_867
*726 FILLER_110_869
*727 FILLER_110_881
*728 FILLER_110_893
*729 FILLER_110_9
*730 FILLER_110_905
*731 FILLER_110_917
*732 FILLER_110_923
*733 FILLER_110_925
*734 FILLER_110_937
*735 FILLER_110_949
*736 FILLER_110_961
*737 FILLER_110_97
*738 FILLER_110_973
*739 FILLER_110_979
*740 FILLER_110_981
*741 FILLER_110_993
*742 FILLER_111_1001
*743 FILLER_111_1007
*744 FILLER_111_1009
*745 FILLER_111_1021
*746 FILLER_111_1033
*747 FILLER_111_1045
*748 FILLER_111_105
*749 FILLER_111_1057
*750 FILLER_111_1063
*751 FILLER_111_1065
*752 FILLER_111_111
*753 FILLER_111_113
*754 FILLER_111_125
*755 FILLER_111_137
*756 FILLER_111_149
*757 FILLER_111_15
*758 FILLER_111_161
*759 FILLER_111_167
*760 FILLER_111_169
*761 FILLER_111_181
*762 FILLER_111_193
*763 FILLER_111_205
*764 FILLER_111_217
*765 FILLER_111_223
*766 FILLER_111_225
*767 FILLER_111_237
*768 FILLER_111_249
*769 FILLER_111_261
*770 FILLER_111_27
*771 FILLER_111_273
*772 FILLER_111_279
*773 FILLER_111_281
*774 FILLER_111_293
*775 FILLER_111_3
*776 FILLER_111_305
*777 FILLER_111_317
*778 FILLER_111_329
*779 FILLER_111_335
*780 FILLER_111_337
*781 FILLER_111_349
*782 FILLER_111_361
*783 FILLER_111_373
*784 FILLER_111_385
*785 FILLER_111_39
*786 FILLER_111_391
*787 FILLER_111_393
*788 FILLER_111_405
*789 FILLER_111_417
*790 FILLER_111_429
*791 FILLER_111_441
*792 FILLER_111_447
*793 FILLER_111_449
*794 FILLER_111_461
*795 FILLER_111_473
*796 FILLER_111_485
*797 FILLER_111_497
*798 FILLER_111_503
*799 FILLER_111_505
*800 FILLER_111_51
*801 FILLER_111_517
*802 FILLER_111_529
*803 FILLER_111_541
*804 FILLER_111_55
*805 FILLER_111_553
*806 FILLER_111_559
*807 FILLER_111_561
*808 FILLER_111_57
*809 FILLER_111_573
*810 FILLER_111_585
*811 FILLER_111_597
*812 FILLER_111_609
*813 FILLER_111_615
*814 FILLER_111_617
*815 FILLER_111_629
*816 FILLER_111_641
*817 FILLER_111_653
*818 FILLER_111_665
*819 FILLER_111_671
*820 FILLER_111_673
*821 FILLER_111_685
*822 FILLER_111_69
*823 FILLER_111_697
*824 FILLER_111_709
*825 FILLER_111_721
*826 FILLER_111_727
*827 FILLER_111_729
*828 FILLER_111_741
*829 FILLER_111_753
*830 FILLER_111_765
*831 FILLER_111_777
*832 FILLER_111_783
*833 FILLER_111_785
*834 FILLER_111_797
*835 FILLER_111_809
*836 FILLER_111_81
*837 FILLER_111_821
*838 FILLER_111_833
*839 FILLER_111_839
*840 FILLER_111_841
*841 FILLER_111_853
*842 FILLER_111_865
*843 FILLER_111_877
*844 FILLER_111_889
*845 FILLER_111_895
*846 FILLER_111_897
*847 FILLER_111_909
*848 FILLER_111_921
*849 FILLER_111_93
*850 FILLER_111_933
*851 FILLER_111_945
*852 FILLER_111_951
*853 FILLER_111_953
*854 FILLER_111_965
*855 FILLER_111_977
*856 FILLER_111_989
*857 FILLER_112_1005
*858 FILLER_112_1017
*859 FILLER_112_1029
*860 FILLER_112_1035
*861 FILLER_112_1037
*862 FILLER_112_1049
*863 FILLER_112_1061
*864 FILLER_112_1073
*865 FILLER_112_109
*866 FILLER_112_121
*867 FILLER_112_133
*868 FILLER_112_139
*869 FILLER_112_141
*870 FILLER_112_15
*871 FILLER_112_153
*872 FILLER_112_165
*873 FILLER_112_177
*874 FILLER_112_189
*875 FILLER_112_195
*876 FILLER_112_197
*877 FILLER_112_209
*878 FILLER_112_221
*879 FILLER_112_233
*880 FILLER_112_245
*881 FILLER_112_251
*882 FILLER_112_253
*883 FILLER_112_265
*884 FILLER_112_27
*885 FILLER_112_277
*886 FILLER_112_289
*887 FILLER_112_29
*888 FILLER_112_3
*889 FILLER_112_301
*890 FILLER_112_307
*891 FILLER_112_309
*892 FILLER_112_321
*893 FILLER_112_333
*894 FILLER_112_345
*895 FILLER_112_357
*896 FILLER_112_363
*897 FILLER_112_365
*898 FILLER_112_377
*899 FILLER_112_389
*900 FILLER_112_401
*901 FILLER_112_41
*902 FILLER_112_413
*903 FILLER_112_419
*904 FILLER_112_421
*905 FILLER_112_433
*906 FILLER_112_445
*907 FILLER_112_457
*908 FILLER_112_469
*909 FILLER_112_475
*910 FILLER_112_477
*911 FILLER_112_489
*912 FILLER_112_501
*913 FILLER_112_513
*914 FILLER_112_525
*915 FILLER_112_53
*916 FILLER_112_531
*917 FILLER_112_533
*918 FILLER_112_545
*919 FILLER_112_557
*920 FILLER_112_569
*921 FILLER_112_581
*922 FILLER_112_587
*923 FILLER_112_589
*924 FILLER_112_601
*925 FILLER_112_613
*926 FILLER_112_625
*927 FILLER_112_637
*928 FILLER_112_643
*929 FILLER_112_645
*930 FILLER_112_65
*931 FILLER_112_657
*932 FILLER_112_669
*933 FILLER_112_681
*934 FILLER_112_693
*935 FILLER_112_699
*936 FILLER_112_701
*937 FILLER_112_713
*938 FILLER_112_725
*939 FILLER_112_737
*940 FILLER_112_749
*941 FILLER_112_755
*942 FILLER_112_757
*943 FILLER_112_769
*944 FILLER_112_77
*945 FILLER_112_781
*946 FILLER_112_793
*947 FILLER_112_805
*948 FILLER_112_811
*949 FILLER_112_813
*950 FILLER_112_825
*951 FILLER_112_83
*952 FILLER_112_837
*953 FILLER_112_849
*954 FILLER_112_85
*955 FILLER_112_861
*956 FILLER_112_867
*957 FILLER_112_869
*958 FILLER_112_881
*959 FILLER_112_893
*960 FILLER_112_905
*961 FILLER_112_917
*962 FILLER_112_923
*963 FILLER_112_925
*964 FILLER_112_937
*965 FILLER_112_949
*966 FILLER_112_961
*967 FILLER_112_97
*968 FILLER_112_973
*969 FILLER_112_979
*970 FILLER_112_981
*971 FILLER_112_993
*972 FILLER_113_1001
*973 FILLER_113_1007
*974 FILLER_113_1009
*975 FILLER_113_1021
*976 FILLER_113_1033
*977 FILLER_113_1045
*978 FILLER_113_105
*979 FILLER_113_1057
*980 FILLER_113_1063
*981 FILLER_113_1065
*982 FILLER_113_1077
*983 FILLER_113_111
*984 FILLER_113_113
*985 FILLER_113_125
*986 FILLER_113_137
*987 FILLER_113_149
*988 FILLER_113_15
*989 FILLER_113_161
*990 FILLER_113_167
*991 FILLER_113_169
*992 FILLER_113_181
*993 FILLER_113_193
*994 FILLER_113_205
*995 FILLER_113_217
*996 FILLER_113_223
*997 FILLER_113_225
*998 FILLER_113_237
*999 FILLER_113_249
*1000 FILLER_113_261
*1001 FILLER_113_27
*1002 FILLER_113_273
*1003 FILLER_113_279
*1004 FILLER_113_281
*1005 FILLER_113_293
*1006 FILLER_113_3
*1007 FILLER_113_305
*1008 FILLER_113_317
*1009 FILLER_113_329
*1010 FILLER_113_335
*1011 FILLER_113_337
*1012 FILLER_113_349
*1013 FILLER_113_361
*1014 FILLER_113_373
*1015 FILLER_113_385
*1016 FILLER_113_39
*1017 FILLER_113_391
*1018 FILLER_113_393
*1019 FILLER_113_405
*1020 FILLER_113_417
*1021 FILLER_113_429
*1022 FILLER_113_441
*1023 FILLER_113_447
*1024 FILLER_113_449
*1025 FILLER_113_461
*1026 FILLER_113_473
*1027 FILLER_113_485
*1028 FILLER_113_497
*1029 FILLER_113_503
*1030 FILLER_113_505
*1031 FILLER_113_51
*1032 FILLER_113_517
*1033 FILLER_113_529
*1034 FILLER_113_541
*1035 FILLER_113_55
*1036 FILLER_113_553
*1037 FILLER_113_559
*1038 FILLER_113_561
*1039 FILLER_113_57
*1040 FILLER_113_573
*1041 FILLER_113_585
*1042 FILLER_113_597
*1043 FILLER_113_609
*1044 FILLER_113_615
*1045 FILLER_113_617
*1046 FILLER_113_629
*1047 FILLER_113_641
*1048 FILLER_113_653
*1049 FILLER_113_665
*1050 FILLER_113_671
*1051 FILLER_113_673
*1052 FILLER_113_685
*1053 FILLER_113_69
*1054 FILLER_113_697
*1055 FILLER_113_709
*1056 FILLER_113_721
*1057 FILLER_113_727
*1058 FILLER_113_729
*1059 FILLER_113_741
*1060 FILLER_113_753
*1061 FILLER_113_765
*1062 FILLER_113_777
*1063 FILLER_113_783
*1064 FILLER_113_785
*1065 FILLER_113_797
*1066 FILLER_113_809
*1067 FILLER_113_81
*1068 FILLER_113_821
*1069 FILLER_113_833
*1070 FILLER_113_839
*1071 FILLER_113_841
*1072 FILLER_113_853
*1073 FILLER_113_865
*1074 FILLER_113_877
*1075 FILLER_113_889
*1076 FILLER_113_895
*1077 FILLER_113_897
*1078 FILLER_113_909
*1079 FILLER_113_921
*1080 FILLER_113_93
*1081 FILLER_113_933
*1082 FILLER_113_945
*1083 FILLER_113_951
*1084 FILLER_113_953
*1085 FILLER_113_965
*1086 FILLER_113_977
*1087 FILLER_113_989
*1088 FILLER_114_1005
*1089 FILLER_114_1017
*1090 FILLER_114_1029
*1091 FILLER_114_1035
*1092 FILLER_114_1037
*1093 FILLER_114_1049
*1094 FILLER_114_1061
*1095 FILLER_114_1073
*1096 FILLER_114_109
*1097 FILLER_114_121
*1098 FILLER_114_133
*1099 FILLER_114_139
*1100 FILLER_114_141
*1101 FILLER_114_15
*1102 FILLER_114_153
*1103 FILLER_114_165
*1104 FILLER_114_177
*1105 FILLER_114_189
*1106 FILLER_114_195
*1107 FILLER_114_197
*1108 FILLER_114_209
*1109 FILLER_114_221
*1110 FILLER_114_233
*1111 FILLER_114_245
*1112 FILLER_114_251
*1113 FILLER_114_253
*1114 FILLER_114_265
*1115 FILLER_114_27
*1116 FILLER_114_277
*1117 FILLER_114_289
*1118 FILLER_114_29
*1119 FILLER_114_3
*1120 FILLER_114_301
*1121 FILLER_114_307
*1122 FILLER_114_309
*1123 FILLER_114_321
*1124 FILLER_114_333
*1125 FILLER_114_345
*1126 FILLER_114_357
*1127 FILLER_114_363
*1128 FILLER_114_365
*1129 FILLER_114_377
*1130 FILLER_114_389
*1131 FILLER_114_401
*1132 FILLER_114_41
*1133 FILLER_114_413
*1134 FILLER_114_419
*1135 FILLER_114_421
*1136 FILLER_114_433
*1137 FILLER_114_445
*1138 FILLER_114_457
*1139 FILLER_114_469
*1140 FILLER_114_475
*1141 FILLER_114_477
*1142 FILLER_114_489
*1143 FILLER_114_501
*1144 FILLER_114_513
*1145 FILLER_114_525
*1146 FILLER_114_53
*1147 FILLER_114_531
*1148 FILLER_114_533
*1149 FILLER_114_545
*1150 FILLER_114_557
*1151 FILLER_114_569
*1152 FILLER_114_581
*1153 FILLER_114_587
*1154 FILLER_114_589
*1155 FILLER_114_601
*1156 FILLER_114_613
*1157 FILLER_114_625
*1158 FILLER_114_637
*1159 FILLER_114_643
*1160 FILLER_114_645
*1161 FILLER_114_65
*1162 FILLER_114_657
*1163 FILLER_114_669
*1164 FILLER_114_681
*1165 FILLER_114_693
*1166 FILLER_114_699
*1167 FILLER_114_701
*1168 FILLER_114_713
*1169 FILLER_114_725
*1170 FILLER_114_737
*1171 FILLER_114_749
*1172 FILLER_114_755
*1173 FILLER_114_757
*1174 FILLER_114_769
*1175 FILLER_114_77
*1176 FILLER_114_781
*1177 FILLER_114_793
*1178 FILLER_114_805
*1179 FILLER_114_811
*1180 FILLER_114_813
*1181 FILLER_114_825
*1182 FILLER_114_83
*1183 FILLER_114_837
*1184 FILLER_114_849
*1185 FILLER_114_85
*1186 FILLER_114_861
*1187 FILLER_114_867
*1188 FILLER_114_869
*1189 FILLER_114_881
*1190 FILLER_114_893
*1191 FILLER_114_905
*1192 FILLER_114_917
*1193 FILLER_114_923
*1194 FILLER_114_925
*1195 FILLER_114_937
*1196 FILLER_114_949
*1197 FILLER_114_961
*1198 FILLER_114_97
*1199 FILLER_114_973
*1200 FILLER_114_979
*1201 FILLER_114_981
*1202 FILLER_114_993
*1203 FILLER_115_1001
*1204 FILLER_115_1007
*1205 FILLER_115_1009
*1206 FILLER_115_1021
*1207 FILLER_115_1033
*1208 FILLER_115_1045
*1209 FILLER_115_105
*1210 FILLER_115_1057
*1211 FILLER_115_1063
*1212 FILLER_115_1065
*1213 FILLER_115_1077
*1214 FILLER_115_111
*1215 FILLER_115_113
*1216 FILLER_115_125
*1217 FILLER_115_137
*1218 FILLER_115_149
*1219 FILLER_115_15
*1220 FILLER_115_161
*1221 FILLER_115_167
*1222 FILLER_115_169
*1223 FILLER_115_181
*1224 FILLER_115_193
*1225 FILLER_115_205
*1226 FILLER_115_217
*1227 FILLER_115_223
*1228 FILLER_115_225
*1229 FILLER_115_237
*1230 FILLER_115_249
*1231 FILLER_115_261
*1232 FILLER_115_27
*1233 FILLER_115_273
*1234 FILLER_115_279
*1235 FILLER_115_281
*1236 FILLER_115_293
*1237 FILLER_115_3
*1238 FILLER_115_305
*1239 FILLER_115_317
*1240 FILLER_115_329
*1241 FILLER_115_335
*1242 FILLER_115_337
*1243 FILLER_115_349
*1244 FILLER_115_361
*1245 FILLER_115_373
*1246 FILLER_115_385
*1247 FILLER_115_39
*1248 FILLER_115_391
*1249 FILLER_115_393
*1250 FILLER_115_405
*1251 FILLER_115_417
*1252 FILLER_115_429
*1253 FILLER_115_441
*1254 FILLER_115_447
*1255 FILLER_115_449
*1256 FILLER_115_461
*1257 FILLER_115_473
*1258 FILLER_115_485
*1259 FILLER_115_497
*1260 FILLER_115_503
*1261 FILLER_115_505
*1262 FILLER_115_51
*1263 FILLER_115_517
*1264 FILLER_115_529
*1265 FILLER_115_541
*1266 FILLER_115_55
*1267 FILLER_115_553
*1268 FILLER_115_559
*1269 FILLER_115_561
*1270 FILLER_115_57
*1271 FILLER_115_573
*1272 FILLER_115_585
*1273 FILLER_115_597
*1274 FILLER_115_609
*1275 FILLER_115_615
*1276 FILLER_115_617
*1277 FILLER_115_629
*1278 FILLER_115_641
*1279 FILLER_115_653
*1280 FILLER_115_665
*1281 FILLER_115_671
*1282 FILLER_115_673
*1283 FILLER_115_685
*1284 FILLER_115_69
*1285 FILLER_115_697
*1286 FILLER_115_709
*1287 FILLER_115_721
*1288 FILLER_115_727
*1289 FILLER_115_729
*1290 FILLER_115_741
*1291 FILLER_115_753
*1292 FILLER_115_765
*1293 FILLER_115_777
*1294 FILLER_115_783
*1295 FILLER_115_785
*1296 FILLER_115_797
*1297 FILLER_115_809
*1298 FILLER_115_81
*1299 FILLER_115_821
*1300 FILLER_115_833
*1301 FILLER_115_839
*1302 FILLER_115_841
*1303 FILLER_115_853
*1304 FILLER_115_865
*1305 FILLER_115_877
*1306 FILLER_115_889
*1307 FILLER_115_895
*1308 FILLER_115_897
*1309 FILLER_115_909
*1310 FILLER_115_921
*1311 FILLER_115_93
*1312 FILLER_115_933
*1313 FILLER_115_945
*1314 FILLER_115_951
*1315 FILLER_115_953
*1316 FILLER_115_965
*1317 FILLER_115_977
*1318 FILLER_115_989
*1319 FILLER_116_1005
*1320 FILLER_116_1017
*1321 FILLER_116_1029
*1322 FILLER_116_1035
*1323 FILLER_116_1037
*1324 FILLER_116_1049
*1325 FILLER_116_1061
*1326 FILLER_116_1073
*1327 FILLER_116_109
*1328 FILLER_116_121
*1329 FILLER_116_133
*1330 FILLER_116_139
*1331 FILLER_116_141
*1332 FILLER_116_15
*1333 FILLER_116_153
*1334 FILLER_116_165
*1335 FILLER_116_177
*1336 FILLER_116_189
*1337 FILLER_116_195
*1338 FILLER_116_197
*1339 FILLER_116_209
*1340 FILLER_116_221
*1341 FILLER_116_233
*1342 FILLER_116_245
*1343 FILLER_116_251
*1344 FILLER_116_253
*1345 FILLER_116_265
*1346 FILLER_116_27
*1347 FILLER_116_277
*1348 FILLER_116_289
*1349 FILLER_116_29
*1350 FILLER_116_3
*1351 FILLER_116_301
*1352 FILLER_116_307
*1353 FILLER_116_309
*1354 FILLER_116_321
*1355 FILLER_116_333
*1356 FILLER_116_345
*1357 FILLER_116_357
*1358 FILLER_116_363
*1359 FILLER_116_365
*1360 FILLER_116_377
*1361 FILLER_116_389
*1362 FILLER_116_401
*1363 FILLER_116_41
*1364 FILLER_116_413
*1365 FILLER_116_419
*1366 FILLER_116_421
*1367 FILLER_116_433
*1368 FILLER_116_445
*1369 FILLER_116_457
*1370 FILLER_116_469
*1371 FILLER_116_475
*1372 FILLER_116_477
*1373 FILLER_116_489
*1374 FILLER_116_501
*1375 FILLER_116_513
*1376 FILLER_116_525
*1377 FILLER_116_53
*1378 FILLER_116_531
*1379 FILLER_116_533
*1380 FILLER_116_545
*1381 FILLER_116_557
*1382 FILLER_116_569
*1383 FILLER_116_581
*1384 FILLER_116_587
*1385 FILLER_116_589
*1386 FILLER_116_601
*1387 FILLER_116_613
*1388 FILLER_116_625
*1389 FILLER_116_637
*1390 FILLER_116_643
*1391 FILLER_116_645
*1392 FILLER_116_65
*1393 FILLER_116_657
*1394 FILLER_116_669
*1395 FILLER_116_681
*1396 FILLER_116_693
*1397 FILLER_116_699
*1398 FILLER_116_701
*1399 FILLER_116_713
*1400 FILLER_116_725
*1401 FILLER_116_737
*1402 FILLER_116_749
*1403 FILLER_116_755
*1404 FILLER_116_757
*1405 FILLER_116_769
*1406 FILLER_116_77
*1407 FILLER_116_781
*1408 FILLER_116_793
*1409 FILLER_116_805
*1410 FILLER_116_811
*1411 FILLER_116_813
*1412 FILLER_116_825
*1413 FILLER_116_83
*1414 FILLER_116_837
*1415 FILLER_116_849
*1416 FILLER_116_85
*1417 FILLER_116_861
*1418 FILLER_116_867
*1419 FILLER_116_869
*1420 FILLER_116_881
*1421 FILLER_116_893
*1422 FILLER_116_905
*1423 FILLER_116_917
*1424 FILLER_116_923
*1425 FILLER_116_925
*1426 FILLER_116_937
*1427 FILLER_116_949
*1428 FILLER_116_961
*1429 FILLER_116_97
*1430 FILLER_116_973
*1431 FILLER_116_979
*1432 FILLER_116_981
*1433 FILLER_116_993
*1434 FILLER_117_1001
*1435 FILLER_117_1007
*1436 FILLER_117_1009
*1437 FILLER_117_1021
*1438 FILLER_117_1033
*1439 FILLER_117_1045
*1440 FILLER_117_105
*1441 FILLER_117_1057
*1442 FILLER_117_1063
*1443 FILLER_117_1065
*1444 FILLER_117_1077
*1445 FILLER_117_111
*1446 FILLER_117_113
*1447 FILLER_117_125
*1448 FILLER_117_137
*1449 FILLER_117_149
*1450 FILLER_117_15
*1451 FILLER_117_161
*1452 FILLER_117_167
*1453 FILLER_117_169
*1454 FILLER_117_181
*1455 FILLER_117_193
*1456 FILLER_117_205
*1457 FILLER_117_217
*1458 FILLER_117_223
*1459 FILLER_117_225
*1460 FILLER_117_237
*1461 FILLER_117_249
*1462 FILLER_117_261
*1463 FILLER_117_27
*1464 FILLER_117_273
*1465 FILLER_117_279
*1466 FILLER_117_281
*1467 FILLER_117_293
*1468 FILLER_117_3
*1469 FILLER_117_305
*1470 FILLER_117_317
*1471 FILLER_117_329
*1472 FILLER_117_335
*1473 FILLER_117_337
*1474 FILLER_117_349
*1475 FILLER_117_361
*1476 FILLER_117_373
*1477 FILLER_117_385
*1478 FILLER_117_39
*1479 FILLER_117_391
*1480 FILLER_117_393
*1481 FILLER_117_405
*1482 FILLER_117_417
*1483 FILLER_117_429
*1484 FILLER_117_441
*1485 FILLER_117_447
*1486 FILLER_117_449
*1487 FILLER_117_461
*1488 FILLER_117_473
*1489 FILLER_117_485
*1490 FILLER_117_497
*1491 FILLER_117_503
*1492 FILLER_117_505
*1493 FILLER_117_51
*1494 FILLER_117_517
*1495 FILLER_117_529
*1496 FILLER_117_541
*1497 FILLER_117_55
*1498 FILLER_117_553
*1499 FILLER_117_559
*1500 FILLER_117_561
*1501 FILLER_117_57
*1502 FILLER_117_573
*1503 FILLER_117_585
*1504 FILLER_117_597
*1505 FILLER_117_609
*1506 FILLER_117_615
*1507 FILLER_117_617
*1508 FILLER_117_629
*1509 FILLER_117_641