*SPEF "ieee 1481-1999"
*DESIGN "counter"
*DATE "17:05:49 Tuesday March 11, 2025"
*VENDOR "The OpenROAD Project"
*PROGRAM "OpenROAD"
*VERSION "edf00dff99f6c40d67a30c0e22a8191c5d2ed9d6"
*DESIGN_FLOW "NAME_SCOPE LOCAL" "PIN_CAP NONE"
*DIVIDER /
*DELIMITER :
*BUS_DELIMITER []
*T_UNIT 1 NS
*C_UNIT 1 PF
*R_UNIT 1 OHM
*L_UNIT 1 HENRY

*NAME_MAP
*1 addr00[0]
*2 addr00[1]
*3 addr00[2]
*4 addr00[3]
*5 addr00[4]
*6 addr00[5]
*7 addr00[6]
*8 addr00[7]
*9 addr01[0]
*10 addr01[1]
*11 addr01[2]
*12 addr01[3]
*13 addr01[4]
*14 addr01[5]
*15 addr01[6]
*16 addr01[7]
*17 clk
*18 csb00
*19 csb01
*20 denum[0]
*21 denum[1]
*22 denum[2]
*23 denum[3]
*24 din00[0]
*25 din00[10]
*26 din00[11]
*27 din00[12]
*28 din00[13]
*29 din00[14]
*30 din00[15]
*31 din00[1]
*32 din00[2]
*33 din00[3]
*34 din00[4]
*35 din00[5]
*36 din00[6]
*37 din00[7]
*38 din00[8]
*39 din00[9]
*40 din01[0]
*41 din01[10]
*42 din01[11]
*43 din01[12]
*44 din01[13]
*45 din01[14]
*46 din01[15]
*47 din01[1]
*48 din01[2]
*49 din01[3]
*50 din01[4]
*51 din01[5]
*52 din01[6]
*53 din01[7]
*54 din01[8]
*55 din01[9]
*56 num[0]
*57 num[1]
*58 num[2]
*59 num[3]
*60 rst
*61 sine_out[0]
*62 sine_out[10]
*63 sine_out[11]
*64 sine_out[12]
*65 sine_out[13]
*66 sine_out[14]
*67 sine_out[15]
*68 sine_out[1]
*69 sine_out[2]
*70 sine_out[3]
*71 sine_out[4]
*72 sine_out[5]
*73 sine_out[6]
*74 sine_out[7]
*75 sine_out[8]
*76 sine_out[9]
*79 _000_
*80 _001_
*81 _002_
*82 _003_
*83 _004_
*84 _005_
*85 _006_
*86 _007_
*87 _008_
*88 _009_
*89 _010_
*90 _011_
*91 _012_
*92 _013_
*93 _014_
*94 _015_
*95 _016_
*96 _017_
*97 _018_
*98 _019_
*99 _020_
*100 _021_
*101 _022_
*102 _023_
*103 _024_
*104 _025_
*105 _026_
*106 _027_
*107 _028_
*108 _029_
*109 _030_
*110 _031_
*111 _032_
*112 _033_
*113 _034_
*114 _035_
*115 _036_
*116 _037_
*117 _038_
*118 _039_
*119 _040_
*120 _041_
*121 _042_
*122 _043_
*123 _044_
*124 _045_
*125 _046_
*126 _047_
*127 _048_
*128 _049_
*129 _050_
*130 _051_
*131 _052_
*132 _053_
*133 _054_
*134 _055_
*135 _056_
*136 _057_
*137 _058_
*138 _059_
*139 _060_
*140 _061_
*141 _062_
*142 _063_
*143 _064_
*144 _065_
*145 _066_
*146 _067_
*147 _068_
*148 _069_
*149 _070_
*150 _071_
*151 _072_
*152 _073_
*153 _074_
*154 _075_
*155 _076_
*156 _077_
*157 _078_
*158 _079_
*159 _080_
*160 _081_
*161 _082_
*162 _083_
*163 _084_
*164 _085_
*165 _086_
*166 _087_
*167 _088_
*168 _089_
*169 _090_
*170 _091_
*171 _092_
*172 _093_
*173 _094_
*174 _095_
*175 _096_
*176 _097_
*177 _098_
*178 _099_
*179 _100_
*180 _101_
*181 _102_
*182 _103_
*183 _104_
*184 _105_
*185 _106_
*186 _107_
*187 _108_
*188 _109_
*189 _110_
*190 _111_
*191 _112_
*192 _113_
*193 _114_
*194 _115_
*195 _116_
*196 _117_
*197 _118_
*198 _119_
*199 _120_
*200 _121_
*201 _122_
*202 _123_
*203 _124_
*204 _125_
*205 _126_
*206 _127_
*207 _128_
*208 _129_
*209 _130_
*210 _131_
*211 _132_
*212 _133_
*213 _134_
*214 _135_
*215 _136_
*216 _137_
*217 _138_
*218 _139_
*219 _140_
*220 _141_
*221 _142_
*222 _143_
*223 _144_
*224 _145_
*225 _146_
*226 _147_
*227 _148_
*228 _149_
*229 _150_
*230 _151_
*231 _152_
*232 _153_
*233 _154_
*234 _155_
*235 _156_
*236 _157_
*237 _158_
*238 _159_
*239 _160_
*240 _161_
*241 _162_
*242 _163_
*243 _164_
*244 _165_
*245 _166_
*246 _167_
*247 _168_
*248 _169_
*249 _170_
*250 _171_
*251 _172_
*252 _173_
*253 _174_
*254 _175_
*255 _176_
*256 _177_
*257 _178_
*258 _179_
*259 _180_
*260 _181_
*261 _182_
*262 _183_
*263 _184_
*264 _185_
*265 _186_
*266 _187_
*267 _188_
*268 _189_
*269 _190_
*270 _191_
*271 _192_
*272 _193_
*273 _194_
*274 _195_
*275 _196_
*276 _197_
*277 _198_
*278 _199_
*279 _200_
*280 _201_
*281 _202_
*282 _203_
*283 _204_
*284 _205_
*285 _206_
*286 _207_
*287 _208_
*288 _209_
*289 _210_
*290 _211_
*291 _212_
*292 _213_
*293 _214_
*294 _215_
*295 _216_
*296 _217_
*297 _218_
*298 _219_
*299 _220_
*300 _221_
*301 _222_
*302 _223_
*303 _224_
*304 _225_
*305 _226_
*306 _227_
*307 _228_
*308 _229_
*309 _230_
*310 _231_
*311 _232_
*312 _233_
*313 _234_
*314 _235_
*315 _236_
*316 _237_
*317 _238_
*318 _239_
*319 _240_
*320 _241_
*321 _242_
*322 _243_
*323 _244_
*324 _245_
*325 _246_
*326 _247_
*327 _248_
*328 _249_
*329 _250_
*330 _251_
*331 _252_
*332 _253_
*333 _254_
*334 _255_
*335 _256_
*336 _257_
*337 _258_
*338 _259_
*339 _260_
*340 _261_
*341 _262_
*342 _263_
*343 _264_
*344 _265_
*345 _266_
*346 _267_
*347 _268_
*348 _269_
*349 _270_
*350 _271_
*351 _272_
*352 _273_
*353 _274_
*354 _275_
*355 _276_
*356 _277_
*357 _278_
*358 _279_
*359 _280_
*360 _281_
*361 _282_
*362 _283_
*363 _284_
*364 _285_
*365 _286_
*366 _287_
*367 _288_
*368 _289_
*369 _290_
*370 clknet_0_clk
*371 clknet_3_0__leaf_clk
*372 clknet_3_1__leaf_clk
*373 clknet_3_2__leaf_clk
*374 clknet_3_3__leaf_clk
*375 clknet_3_4__leaf_clk
*376 clknet_3_5__leaf_clk
*377 clknet_3_6__leaf_clk
*378 clknet_3_7__leaf_clk
*379 net1
*380 net10
*381 net100
*382 net101
*383 net102
*384 net103
*385 net104
*386 net105
*387 net106
*388 net107
*389 net108
*390 net109
*391 net11
*392 net110
*393 net111
*394 net112
*395 net113
*396 net114
*397 net115
*398 net116
*399 net117
*400 net118
*401 net119
*402 net12
*403 net120
*404 net121
*405 net13
*406 net14
*407 net15
*408 net16
*409 net17
*410 net18
*411 net19
*412 net2
*413 net20
*414 net21
*415 net22
*416 net23
*417 net24
*418 net25
*419 net26
*420 net27
*421 net28
*422 net29
*423 net3
*424 net30
*425 net31
*426 net32
*427 net33
*428 net34
*429 net35
*430 net36
*431 net37
*432 net38
*433 net39
*434 net4
*435 net40
*436 net41
*437 net42
*438 net43
*439 net44
*440 net45
*441 net46
*442 net47
*443 net48
*444 net49
*445 net5
*446 net50
*447 net51
*448 net52
*449 net53
*450 net54
*451 net55
*452 net56
*453 net57
*454 net58
*455 net59
*456 net6
*457 net60
*458 net61
*459 net62
*460 net63
*461 net64
*462 net65
*463 net66
*464 net67
*465 net68
*466 net69
*467 net7
*468 net70
*469 net71
*470 net72
*471 net73
*472 net74
*473 net75
*474 net76
*475 net77
*476 net78
*477 net79
*478 net8
*479 net80
*480 net81
*481 net82
*482 net83
*483 net84
*484 net85
*485 net86
*486 net87
*487 net88
*488 net89
*489 net9
*490 net90
*491 net91
*492 net92
*493 net93
*494 net94
*495 net95
*496 net96
*497 net99
*498 sine_out_reg0\[0\]
*499 sine_out_reg0\[10\]
*500 sine_out_reg0\[11\]
*501 sine_out_reg0\[12\]
*502 sine_out_reg0\[13\]
*503 sine_out_reg0\[14\]
*504 sine_out_reg0\[15\]
*505 sine_out_reg0\[1\]
*506 sine_out_reg0\[2\]
*507 sine_out_reg0\[3\]
*508 sine_out_reg0\[4\]
*509 sine_out_reg0\[5\]
*510 sine_out_reg0\[6\]
*511 sine_out_reg0\[7\]
*512 sine_out_reg0\[8\]
*513 sine_out_reg0\[9\]
*514 sine_out_reg1\[0\]
*515 sine_out_reg1\[10\]
*516 sine_out_reg1\[11\]
*517 sine_out_reg1\[12\]
*518 sine_out_reg1\[13\]
*519 sine_out_reg1\[14\]
*520 sine_out_reg1\[15\]
*521 sine_out_reg1\[1\]
*522 sine_out_reg1\[2\]
*523 sine_out_reg1\[3\]
*524 sine_out_reg1\[4\]
*525 sine_out_reg1\[5\]
*526 sine_out_reg1\[6\]
*527 sine_out_reg1\[7\]
*528 sine_out_reg1\[8\]
*529 sine_out_reg1\[9\]
*530 sine_out_temp0\[0\]
*531 sine_out_temp0\[10\]
*532 sine_out_temp0\[11\]
*533 sine_out_temp0\[12\]
*534 sine_out_temp0\[13\]
*535 sine_out_temp0\[14\]
*536 sine_out_temp0\[15\]
*537 sine_out_temp0\[1\]
*538 sine_out_temp0\[2\]
*539 sine_out_temp0\[3\]
*540 sine_out_temp0\[4\]
*541 sine_out_temp0\[5\]
*542 sine_out_temp0\[6\]
*543 sine_out_temp0\[7\]
*544 sine_out_temp0\[8\]
*545 sine_out_temp0\[9\]
*546 sine_out_temp1\[0\]
*547 sine_out_temp1\[10\]
*548 sine_out_temp1\[11\]
*549 sine_out_temp1\[12\]
*550 sine_out_temp1\[13\]
*551 sine_out_temp1\[14\]
*552 sine_out_temp1\[15\]
*553 sine_out_temp1\[1\]
*554 sine_out_temp1\[2\]
*555 sine_out_temp1\[3\]
*556 sine_out_temp1\[4\]
*557 sine_out_temp1\[5\]
*558 sine_out_temp1\[6\]
*559 sine_out_temp1\[7\]
*560 sine_out_temp1\[8\]
*561 sine_out_temp1\[9\]
*562 tcout\[0\]
*563 tcout\[1\]
*564 tcout\[2\]
*565 tcout\[3\]
*566 tcout\[4\]
*567 tcout\[5\]
*568 tcout\[6\]
*569 tcout\[7\]
*570 tcout\[8\]
*571 tcout_delay\[0\]
*572 tcout_delay\[1\]
*573 ANTENNA_1
*574 ANTENNA_10
*575 ANTENNA_11
*576 ANTENNA_12
*577 ANTENNA_13
*578 ANTENNA_14
*579 ANTENNA_15
*580 ANTENNA_16
*581 ANTENNA_17
*582 ANTENNA_2
*583 ANTENNA_3
*584 ANTENNA_4
*585 ANTENNA_5
*586 ANTENNA_6
*587 ANTENNA_7
*588 ANTENNA_8
*589 ANTENNA_9
*590 ANTENNA__513__A1
*591 ANTENNA__516__A
*592 ANTENNA__546__A
*593 ANTENNA__577__A
*594 ANTENNA__578__A
*595 ANTENNA__579__A
*596 ANTENNA__580__A
*597 ANTENNA__581__A
*598 ANTENNA__582__A
*599 ANTENNA__583__A
*600 ANTENNA__584__A
*601 ANTENNA__585__A
*602 ANTENNA__586__A
*603 ANTENNA__587__A
*604 ANTENNA__604__CLK
*605 ANTENNA__609__CLK
*606 ANTENNA__610__CLK
*607 ANTENNA__612__Q
*608 ANTENNA__613__CLK
*609 ANTENNA__614__CLK
*610 ANTENNA__615__CLK
*611 ANTENNA__616__CLK
*612 ANTENNA__617__CLK
*613 ANTENNA__641__CLK
*614 ANTENNA__642__CLK
*615 ANTENNA__643__CLK
*616 ANTENNA__644__CLK
*617 ANTENNA__645__CLK
*618 ANTENNA__645__Q
*619 ANTENNA__646__CLK
*620 ANTENNA__646__D
*621 ANTENNA_clkbuf_0_clk_A
*622 ANTENNA_clkbuf_0_clk_X
*623 ANTENNA_clkbuf_3_0__f_clk_A
*624 ANTENNA_clkbuf_3_0__f_clk_X
*625 ANTENNA_clkbuf_3_1__f_clk_A
*626 ANTENNA_clkbuf_3_2__f_clk_A
*627 ANTENNA_clkbuf_3_3__f_clk_A
*628 ANTENNA_clkbuf_3_4__f_clk_A
*629 ANTENNA_clkbuf_3_4__f_clk_X
*630 ANTENNA_clkbuf_3_5__f_clk_A
*631 ANTENNA_clkbuf_3_6__f_clk_A
*632 ANTENNA_clkbuf_3_7__f_clk_A
*633 ANTENNA_clkbuf_3_7__f_clk_X
*634 ANTENNA_clkload0_A
*635 ANTENNA_clkload3_A
*636 ANTENNA_clkload6_A
*637 ANTENNA_fanout103_A
*638 ANTENNA_fanout104_A
*639 ANTENNA_fanout104_X
*640 ANTENNA_fanout76_A
*641 ANTENNA_fanout77_A
*642 ANTENNA_input10_A
*643 ANTENNA_input11_A
*644 ANTENNA_input12_A
*645 ANTENNA_input13_A
*646 ANTENNA_input14_A
*647 ANTENNA_input15_A
*648 ANTENNA_input16_A
*649 ANTENNA_input17_A
*650 ANTENNA_input18_A
*651 ANTENNA_input19_A
*652 ANTENNA_input1_A
*653 ANTENNA_input20_A
*654 ANTENNA_input21_A
*655 ANTENNA_input22_A
*656 ANTENNA_input23_A
*657 ANTENNA_input24_A
*658 ANTENNA_input25_A
*659 ANTENNA_input26_A
*660 ANTENNA_input27_A
*661 ANTENNA_input28_A
*662 ANTENNA_input29_A
*663 ANTENNA_input2_A
*664 ANTENNA_input30_A
*665 ANTENNA_input31_A
*666 ANTENNA_input32_A
*667 ANTENNA_input33_A
*668 ANTENNA_input34_A
*669 ANTENNA_input35_A
*670 ANTENNA_input36_A
*671 ANTENNA_input37_A
*672 ANTENNA_input38_A
*673 ANTENNA_input39_A
*674 ANTENNA_input3_A
*675 ANTENNA_input40_A
*676 ANTENNA_input41_A
*677 ANTENNA_input42_A
*678 ANTENNA_input43_A
*679 ANTENNA_input44_A
*680 ANTENNA_input45_A
*681 ANTENNA_input46_A
*682 ANTENNA_input47_A
*683 ANTENNA_input48_A
*684 ANTENNA_input49_A
*685 ANTENNA_input4_A
*686 ANTENNA_input50_A
*687 ANTENNA_input50_X
*688 ANTENNA_input5_A
*689 ANTENNA_input6_A
*690 ANTENNA_input7_A
*691 ANTENNA_input8_A
*692 ANTENNA_input9_A
*693 ANTENNA_load_slew101_X
*694 ANTENNA_load_slew78_X
*695 ANTENNA_load_slew80_X
*696 ANTENNA_load_slew83_X
*697 ANTENNA_load_slew86_X
*698 ANTENNA_mem_i_addr1\[0\]
*699 ANTENNA_mem_i_addr1\[4\]
*700 ANTENNA_mem_i_addr1\[5\]
*701 ANTENNA_mem_i_addr1\[6\]
*702 ANTENNA_mem_i_addr1\[7\]
*703 ANTENNA_mem_i_clk0
*704 ANTENNA_mem_i_clk1
*705 FILLER_0_1005
*706 FILLER_0_1009
*707 FILLER_0_1021
*708 FILLER_0_1033
*709 FILLER_0_1037
*710 FILLER_0_1049
*711 FILLER_0_1061
*712 FILLER_0_1065
*713 FILLER_0_1077
*714 FILLER_0_1089
*715 FILLER_0_109
*716 FILLER_0_1093
*717 FILLER_0_1105
*718 FILLER_0_1117
*719 FILLER_0_1121
*720 FILLER_0_113
*721 FILLER_0_1133
*722 FILLER_0_1145
*723 FILLER_0_1149
*724 FILLER_0_1161
*725 FILLER_0_1173
*726 FILLER_0_1177
*727 FILLER_0_1189
*728 FILLER_0_1201
*729 FILLER_0_1205
*730 FILLER_0_1217
*731 FILLER_0_1229
*732 FILLER_0_1233
*733 FILLER_0_1245
*734 FILLER_0_125
*735 FILLER_0_1257
*736 FILLER_0_1261
*737 FILLER_0_1273
*738 FILLER_0_137
*739 FILLER_0_141
*740 FILLER_0_15
*741 FILLER_0_153
*742 FILLER_0_165
*743 FILLER_0_169
*744 FILLER_0_181
*745 FILLER_0_193
*746 FILLER_0_197
*747 FILLER_0_209
*748 FILLER_0_221
*749 FILLER_0_225
*750 FILLER_0_237
*751 FILLER_0_249
*752 FILLER_0_253
*753 FILLER_0_265
*754 FILLER_0_27
*755 FILLER_0_272
*756 FILLER_0_281
*757 FILLER_0_29
*758 FILLER_0_293
*759 FILLER_0_3
*760 FILLER_0_305
*761 FILLER_0_309
*762 FILLER_0_321
*763 FILLER_0_329
*764 FILLER_0_335
*765 FILLER_0_337
*766 FILLER_0_343
*767 FILLER_0_349
*768 FILLER_0_356
*769 FILLER_0_370
*770 FILLER_0_378
*771 FILLER_0_384
*772 FILLER_0_398
*773 FILLER_0_405
*774 FILLER_0_41
*775 FILLER_0_417
*776 FILLER_0_426
*777 FILLER_0_433
*778 FILLER_0_441
*779 FILLER_0_447
*780 FILLER_0_449
*781 FILLER_0_455
*782 FILLER_0_461
*783 FILLER_0_469
*784 FILLER_0_475
*785 FILLER_0_477
*786 FILLER_0_483
*787 FILLER_0_489
*788 FILLER_0_496
*789 FILLER_0_510
*790 FILLER_0_518
*791 FILLER_0_524
*792 FILLER_0_53
*793 FILLER_0_538
*794 FILLER_0_546
*795 FILLER_0_552
*796 FILLER_0_559
*797 FILLER_0_561
*798 FILLER_0_567
*799 FILLER_0_57
*800 FILLER_0_573
*801 FILLER_0_581
*802 FILLER_0_587
*803 FILLER_0_589
*804 FILLER_0_595
*805 FILLER_0_601
*806 FILLER_0_609
*807 FILLER_0_615
*808 FILLER_0_622
*809 FILLER_0_630
*810 FILLER_0_636
*811 FILLER_0_650
*812 FILLER_0_658
*813 FILLER_0_664
*814 FILLER_0_678
*815 FILLER_0_685
*816 FILLER_0_69
*817 FILLER_0_693
*818 FILLER_0_699
*819 FILLER_0_701
*820 FILLER_0_707
*821 FILLER_0_713
*822 FILLER_0_721
*823 FILLER_0_727
*824 FILLER_0_729
*825 FILLER_0_741
*826 FILLER_0_753
*827 FILLER_0_757
*828 FILLER_0_769
*829 FILLER_0_781
*830 FILLER_0_785
*831 FILLER_0_797
*832 FILLER_0_809
*833 FILLER_0_81
*834 FILLER_0_813
*835 FILLER_0_825
*836 FILLER_0_837
*837 FILLER_0_841
*838 FILLER_0_85
*839 FILLER_0_853
*840 FILLER_0_865
*841 FILLER_0_869
*842 FILLER_0_881
*843 FILLER_0_893
*844 FILLER_0_897
*845 FILLER_0_909
*846 FILLER_0_921
*847 FILLER_0_925
*848 FILLER_0_937
*849 FILLER_0_949
*850 FILLER_0_953
*851 FILLER_0_965
*852 FILLER_0_97
*853 FILLER_0_977
*854 FILLER_0_981
*855 FILLER_0_993
*856 FILLER_100_1165
*857 FILLER_100_1177
*858 FILLER_100_1189
*859 FILLER_100_1191
*860 FILLER_100_1203
*861 FILLER_100_1215
*862 FILLER_100_1227
*863 FILLER_100_1239
*864 FILLER_100_1245
*865 FILLER_100_1247
*866 FILLER_100_1259
*867 FILLER_100_1271
*868 FILLER_100_15
*869 FILLER_100_27
*870 FILLER_100_29
*871 FILLER_100_3
*872 FILLER_100_41
*873 FILLER_100_53
*874 FILLER_100_65
*875 FILLER_101_1165
*876 FILLER_101_1177
*877 FILLER_101_1189
*878 FILLER_101_1201
*879 FILLER_101_1213
*880 FILLER_101_1217
*881 FILLER_101_1219
*882 FILLER_101_1231
*883 FILLER_101_1243
*884 FILLER_101_1255
*885 FILLER_101_1267
*886 FILLER_101_1273
*887 FILLER_101_1275
*888 FILLER_101_15
*889 FILLER_101_27
*890 FILLER_101_3
*891 FILLER_101_39
*892 FILLER_101_51
*893 FILLER_101_55
*894 FILLER_101_57
*895 FILLER_101_69
*896 FILLER_102_1185
*897 FILLER_102_1189
*898 FILLER_102_1191
*899 FILLER_102_1203
*900 FILLER_102_1215
*901 FILLER_102_1227
*902 FILLER_102_1239
*903 FILLER_102_1245
*904 FILLER_102_1247
*905 FILLER_102_1259
*906 FILLER_102_1271
*907 FILLER_102_15
*908 FILLER_102_27
*909 FILLER_102_29
*910 FILLER_102_3
*911 FILLER_102_41
*912 FILLER_102_53
*913 FILLER_102_65
*914 FILLER_103_1165
*915 FILLER_103_1177
*916 FILLER_103_1189
*917 FILLER_103_1201
*918 FILLER_103_1213
*919 FILLER_103_1217
*920 FILLER_103_1219
*921 FILLER_103_1231
*922 FILLER_103_1243
*923 FILLER_103_1255
*924 FILLER_103_1267
*925 FILLER_103_1273
*926 FILLER_103_1275
*927 FILLER_103_15
*928 FILLER_103_27
*929 FILLER_103_3
*930 FILLER_103_39
*931 FILLER_103_51
*932 FILLER_103_55
*933 FILLER_103_57
*934 FILLER_103_69
*935 FILLER_104_1165
*936 FILLER_104_1177
*937 FILLER_104_1189
*938 FILLER_104_1191
*939 FILLER_104_1203
*940 FILLER_104_1215
*941 FILLER_104_1227
*942 FILLER_104_1239
*943 FILLER_104_1245
*944 FILLER_104_1247
*945 FILLER_104_1259
*946 FILLER_104_1271
*947 FILLER_104_15
*948 FILLER_104_27
*949 FILLER_104_29
*950 FILLER_104_3
*951 FILLER_104_41
*952 FILLER_104_53
*953 FILLER_104_65
*954 FILLER_105_1165
*955 FILLER_105_1177
*956 FILLER_105_1189
*957 FILLER_105_1201
*958 FILLER_105_1213
*959 FILLER_105_1217
*960 FILLER_105_1219
*961 FILLER_105_1231
*962 FILLER_105_1243
*963 FILLER_105_1255
*964 FILLER_105_1267
*965 FILLER_105_1273
*966 FILLER_105_1275
*967 FILLER_105_15
*968 FILLER_105_27
*969 FILLER_105_3
*970 FILLER_105_39
*971 FILLER_105_51
*972 FILLER_105_55
*973 FILLER_105_57
*974 FILLER_105_69
*975 FILLER_106_1165
*976 FILLER_106_1177
*977 FILLER_106_1189
*978 FILLER_106_1191
*979 FILLER_106_1203
*980 FILLER_106_1215
*981 FILLER_106_1227
*982 FILLER_106_1239
*983 FILLER_106_1245
*984 FILLER_106_1247
*985 FILLER_106_1259
*986 FILLER_106_1271
*987 FILLER_106_15
*988 FILLER_106_27
*989 FILLER_106_29
*990 FILLER_106_3
*991 FILLER_106_41
*992 FILLER_106_53
*993 FILLER_106_65
*994 FILLER_107_1165
*995 FILLER_107_1177
*996 FILLER_107_1189
*997 FILLER_107_1201
*998 FILLER_107_1213
*999 FILLER_107_1217
*1000 FILLER_107_1219
*1001 FILLER_107_1231
*1002 FILLER_107_1243
*1003 FILLER_107_1255
*1004 FILLER_107_1267
*1005 FILLER_107_1273
*1006 FILLER_107_1275
*1007 FILLER_107_15
*1008 FILLER_107_27
*1009 FILLER_107_3
*1010 FILLER_107_39
*1011 FILLER_107_51
*1012 FILLER_107_55
*1013 FILLER_107_57
*1014 FILLER_107_69
*1015 FILLER_108_1165
*1016 FILLER_108_1177
*1017 FILLER_108_1189
*1018 FILLER_108_1191
*1019 FILLER_108_1203
*1020 FILLER_108_1215
*1021 FILLER_108_1227
*1022 FILLER_108_1239
*1023 FILLER_108_1245
*1024 FILLER_108_1247
*1025 FILLER_108_1259
*1026 FILLER_108_1271
*1027 FILLER_108_15
*1028 FILLER_108_27
*1029 FILLER_108_29
*1030 FILLER_108_3
*1031 FILLER_108_41
*1032 FILLER_108_53
*1033 FILLER_108_65
*1034 FILLER_109_1165
*1035 FILLER_109_1177
*1036 FILLER_109_1189
*1037 FILLER_109_1201
*1038 FILLER_109_1213
*1039 FILLER_109_1217
*1040 FILLER_109_1219
*1041 FILLER_109_1231
*1042 FILLER_109_1243
*1043 FILLER_109_1255
*1044 FILLER_109_1267
*1045 FILLER_109_1273
*1046 FILLER_109_1275
*1047 FILLER_109_15
*1048 FILLER_109_27
*1049 FILLER_109_3
*1050 FILLER_109_39
*1051 FILLER_109_51
*1052 FILLER_109_55
*1053 FILLER_109_57
*1054 FILLER_109_69
*1055 FILLER_10_1165
*1056 FILLER_10_1177
*1057 FILLER_10_1189
*1058 FILLER_10_1191
*1059 FILLER_10_1203
*1060 FILLER_10_1215
*1061 FILLER_10_1227
*1062 FILLER_10_1239
*1063 FILLER_10_1245
*1064 FILLER_10_1247
*1065 FILLER_10_1259
*1066 FILLER_10_1271
*1067 FILLER_10_15
*1068 FILLER_10_27
*1069 FILLER_10_29
*1070 FILLER_10_3
*1071 FILLER_10_41
*1072 FILLER_10_53
*1073 FILLER_10_65
*1074 FILLER_110_1165
*1075 FILLER_110_1177
*1076 FILLER_110_1189
*1077 FILLER_110_1191
*1078 FILLER_110_1203
*1079 FILLER_110_1215
*1080 FILLER_110_1227
*1081 FILLER_110_1239
*1082 FILLER_110_1245
*1083 FILLER_110_1247
*1084 FILLER_110_1259
*1085 FILLER_110_1271
*1086 FILLER_110_15
*1087 FILLER_110_27
*1088 FILLER_110_29
*1089 FILLER_110_3
*1090 FILLER_110_41
*1091 FILLER_110_53
*1092 FILLER_110_65
*1093 FILLER_111_1165
*1094 FILLER_111_1177
*1095 FILLER_111_1189
*1096 FILLER_111_1201
*1097 FILLER_111_1213
*1098 FILLER_111_1217
*1099 FILLER_111_1219
*1100 FILLER_111_1231
*1101 FILLER_111_1243
*1102 FILLER_111_1255
*1103 FILLER_111_1267
*1104 FILLER_111_1273
*1105 FILLER_111_1275
*1106 FILLER_111_15
*1107 FILLER_111_27
*1108 FILLER_111_3
*1109 FILLER_111_39
*1110 FILLER_111_51
*1111 FILLER_111_55
*1112 FILLER_111_57
*1113 FILLER_111_69
*1114 FILLER_112_1165
*1115 FILLER_112_1177
*1116 FILLER_112_1189
*1117 FILLER_112_1191
*1118 FILLER_112_1203
*1119 FILLER_112_1215
*1120 FILLER_112_1227
*1121 FILLER_112_1239
*1122 FILLER_112_1245
*1123 FILLER_112_1247
*1124 FILLER_112_1259
*1125 FILLER_112_1271
*1126 FILLER_112_15
*1127 FILLER_112_27
*1128 FILLER_112_29
*1129 FILLER_112_3
*1130 FILLER_112_41
*1131 FILLER_112_53
*1132 FILLER_112_65
*1133 FILLER_113_1165
*1134 FILLER_113_1177
*1135 FILLER_113_1189
*1136 FILLER_113_1201
*1137 FILLER_113_1213
*1138 FILLER_113_1217
*1139 FILLER_113_1219
*1140 FILLER_113_1231
*1141 FILLER_113_1243
*1142 FILLER_113_1255
*1143 FILLER_113_1267
*1144 FILLER_113_1273
*1145 FILLER_113_1275
*1146 FILLER_113_15
*1147 FILLER_113_27
*1148 FILLER_113_3
*1149 FILLER_113_39
*1150 FILLER_113_51
*1151 FILLER_113_55
*1152 FILLER_113_57
*1153 FILLER_113_69
*1154 FILLER_114_1165
*1155 FILLER_114_1177
*1156 FILLER_114_1189
*1157 FILLER_114_1191
*1158 FILLER_114_1203
*1159 FILLER_114_1215
*1160 FILLER_114_1227
*1161 FILLER_114_1239
*1162 FILLER_114_1245
*1163 FILLER_114_1247
*1164 FILLER_114_1259
*1165 FILLER_114_1271
*1166 FILLER_114_15
*1167 FILLER_114_27
*1168 FILLER_114_29
*1169 FILLER_114_3
*1170 FILLER_114_41
*1171 FILLER_114_53
*1172 FILLER_114_65
*1173 FILLER_115_1165
*1174 FILLER_115_1177
*1175 FILLER_115_1189
*1176 FILLER_115_1201
*1177 FILLER_115_1213
*1178 FILLER_115_1217
*1179 FILLER_115_1219
*1180 FILLER_115_1231
*1181 FILLER_115_1243
*1182 FILLER_115_1255
*1183 FILLER_115_1267
*1184 FILLER_115_1273
*1185 FILLER_115_1275
*1186 FILLER_115_15
*1187 FILLER_115_27
*1188 FILLER_115_3
*1189 FILLER_115_39
*1190 FILLER_115_51
*1191 FILLER_115_55
*1192 FILLER_115_57
*1193 FILLER_115_69
*1194 FILLER_116_1165
*1195 FILLER_116_1177
*1196 FILLER_116_1189
*1197 FILLER_116_1191
*1198 FILLER_116_1203
*1199 FILLER_116_1215
*1200 FILLER_116_1227
*1201 FILLER_116_1239
*1202 FILLER_116_1245
*1203 FILLER_116_1247
*1204 FILLER_116_1259
*1205 FILLER_116_1271
*1206 FILLER_116_15
*1207 FILLER_116_27
*1208 FILLER_116_29
*1209 FILLER_116_3
*1210 FILLER_116_41
*1211 FILLER_116_53
*1212 FILLER_116_65
*1213 FILLER_117_1165
*1214 FILLER_117_1177
*1215 FILLER_117_1189
*1216 FILLER_117_1201
*1217 FILLER_117_1213
*1218 FILLER_117_1217
*1219 FILLER_117_1219
*1220 FILLER_117_1231
*1221 FILLER_117_1243
*1222 FILLER_117_1255
*1223 FILLER_117_1267
*1224 FILLER_117_1273
*1225 FILLER_117_1275
*1226 FILLER_117_15
*1227 FILLER_117_27
*1228 FILLER_117_3
*1229 FILLER_117_39
*1230 FILLER_117_51
*1231 FILLER_117_55
*1232 FILLER_117_57
*1233 FILLER_117_69
*1234 FILLER_118_1165
*1235 FILLER_118_1177
*1236 FILLER_118_1189
*1237 FILLER_118_1191
*1238 FILLER_118_1203
*1239 FILLER_118_1215
*1240 FILLER_118_1227
*1241 FILLER_118_1239
*1242 FILLER_118_1245
*1243 FILLER_118_1247
*1244 FILLER_118_1259
*1245 FILLER_118_1271
*1246 FILLER_118_15
*1247 FILLER_118_27
*1248 FILLER_118_29
*1249 FILLER_118_3
*1250 FILLER_118_41
*1251 FILLER_118_53
*1252 FILLER_118_65
*1253 FILLER_119_1186
*1254 FILLER_119_1198
*1255 FILLER_119_1210
*1256 FILLER_119_1219
*1257 FILLER_119_1231
*1258 FILLER_119_1243
*1259 FILLER_119_1255
*1260 FILLER_119_1267
*1261 FILLER_119_1273
*1262 FILLER_119_1275
*1263 FILLER_119_15
*1264 FILLER_119_27
*1265 FILLER_119_3
*1266 FILLER_119_39
*1267 FILLER_119_51
*1268 FILLER_119_55
*1269 FILLER_119_57
*1270 FILLER_119_69
*1271 FILLER_11_1165
*1272 FILLER_11_1177
*1273 FILLER_11_1189
*1274 FILLER_11_1201
*1275 FILLER_11_1213
*1276 FILLER_11_1217
*1277 FILLER_11_1219
*1278 FILLER_11_1231
*1279 FILLER_11_1243
*1280 FILLER_11_1255
*1281 FILLER_11_1267
*1282 FILLER_11_1273
*1283 FILLER_11_1275
*1284 FILLER_11_15
*1285 FILLER_11_27
*1286 FILLER_11_3
*1287 FILLER_11_39
*1288 FILLER_11_51
*1289 FILLER_11_55
*1290 FILLER_11_57
*1291 FILLER_11_69
*1292 FILLER_120_1165
*1293 FILLER_120_1177
*1294 FILLER_120_1189
*1295 FILLER_120_1191
*1296 FILLER_120_1203
*1297 FILLER_120_1215
*1298 FILLER_120_1227
*1299 FILLER_120_1239
*1300 FILLER_120_1245
*1301 FILLER_120_1247
*1302 FILLER_120_1259
*1303 FILLER_120_1271
*1304 FILLER_120_15
*1305 FILLER_120_27
*1306 FILLER_120_29
*1307 FILLER_120_3
*1308 FILLER_120_41
*1309 FILLER_120_53
*1310 FILLER_120_65
*1311 FILLER_121_1165
*1312 FILLER_121_1177
*1313 FILLER_121_1189
*1314 FILLER_121_1201
*1315 FILLER_121_1213
*1316 FILLER_121_1217
*1317 FILLER_121_1219
*1318 FILLER_121_1231
*1319 FILLER_121_1243
*1320 FILLER_121_1255
*1321 FILLER_121_1267
*1322 FILLER_121_1273
*1323 FILLER_121_1275
*1324 FILLER_121_15
*1325 FILLER_121_27
*1326 FILLER_121_3
*1327 FILLER_121_39
*1328 FILLER_121_51
*1329 FILLER_121_55
*1330 FILLER_121_57
*1331 FILLER_121_69
*1332 FILLER_122_1165
*1333 FILLER_122_1177
*1334 FILLER_122_1189
*1335 FILLER_122_1191
*1336 FILLER_122_1203
*1337 FILLER_122_1215
*1338 FILLER_122_1227
*1339 FILLER_122_1239
*1340 FILLER_122_1245
*1341 FILLER_122_1247
*1342 FILLER_122_1259
*1343 FILLER_122_1271
*1344 FILLER_122_15
*1345 FILLER_122_27
*1346 FILLER_122_29
*1347 FILLER_122_3
*1348 FILLER_122_41
*1349 FILLER_122_53
*1350 FILLER_122_65
*1351 FILLER_123_1165
*1352 FILLER_123_1177
*1353 FILLER_123_1189
*1354 FILLER_123_1201
*1355 FILLER_123_1213
*1356 FILLER_123_1217
*1357 FILLER_123_1219
*1358 FILLER_123_1231
*1359 FILLER_123_1243
*1360 FILLER_123_1255
*1361 FILLER_123_1267
*1362 FILLER_123_1273
*1363 FILLER_123_1275
*1364 FILLER_123_15
*1365 FILLER_123_27
*1366 FILLER_123_3
*1367 FILLER_123_39
*1368 FILLER_123_51
*1369 FILLER_123_55
*1370 FILLER_123_57
*1371 FILLER_123_69
*1372 FILLER_124_1165
*1373 FILLER_124_1177
*1374 FILLER_124_1189
*1375 FILLER_124_1191
*1376 FILLER_124_1203
*1377 FILLER_124_1215
*1378 FILLER_124_1227
*1379 FILLER_124_1239
*1380 FILLER_124_1245
*1381 FILLER_124_1247
*1382 FILLER_124_1259
*1383 FILLER_124_1271
*1384 FILLER_124_15
*1385 FILLER_124_27
*1386 FILLER_124_29
*1387 FILLER_124_3
*1388 FILLER_124_41
*1389 FILLER_124_53
*1390 FILLER_124_65
*1391 FILLER_125_1165
*1392 FILLER_125_1177
*1393 FILLER_125_1189
*1394 FILLER_125_1201
*1395 FILLER_125_1213
*1396 FILLER_125_1217
*1397 FILLER_125_1219
*1398 FILLER_125_1231
*1399 FILLER_125_1243
*1400 FILLER_125_1255
*1401 FILLER_125_1267
*1402 FILLER_125_1273
*1403 FILLER_125_1275
*1404 FILLER_125_15
*1405 FILLER_125_27
*1406 FILLER_125_3
*1407 FILLER_125_39
*1408 FILLER_125_51
*1409 FILLER_125_55
*1410 FILLER_125_57
*1411 FILLER_125_69
*1412 FILLER_126_1165
*1413 FILLER_126_1177
*1414 FILLER_126_1189
*1415 FILLER_126_1191
*1416 FILLER_126_1203
*1417 FILLER_126_1215
*1418 FILLER_126_1227
*1419 FILLER_126_1239
*1420 FILLER_126_1245
*1421 FILLER_126_1247
*1422 FILLER_126_1259
*1423 FILLER_126_1271
*1424 FILLER_126_15
*1425 FILLER_126_27
*1426 FILLER_126_29
*1427 FILLER_126_3
*1428 FILLER_126_41
*1429 FILLER_126_53
*1430 FILLER_126_65
*1431 FILLER_127_1165
*1432 FILLER_127_1177
*1433 FILLER_127_1189
*1434 FILLER_127_1201
*1435 FILLER_127_1213
*1436 FILLER_127_1217
*1437 FILLER_127_1219
*1438 FILLER_127_1231
*1439 FILLER_127_1243
*1440 FILLER_127_1255
*1441 FILLER_127_1267
*1442 FILLER_127_1273
*1443 FILLER_127_1275
*1444 FILLER_127_15
*1445 FILLER_127_27
*1446 FILLER_127_3
*1447 FILLER_127_39
*1448 FILLER_127_51
*1449 FILLER_127_55
*1450 FILLER_127_57
*1451 FILLER_127_69
*1452 FILLER_128_1165
*1453 FILLER_128_1177
*1454 FILLER_128_1189
*1455 FILLER_128_1191
*1456 FILLER_128_1203
*1457 FILLER_128_1215
*1458 FILLER_128_1227
*1459 FILLER_128_1239
*1460 FILLER_128_1245
*1461 FILLER_128_1247
*1462 FILLER_128_1259
*1463 FILLER_128_1271
*1464 FILLER_128_15
*1465 FILLER_128_27
*1466 FILLER_128_29
*1467 FILLER_128_3
*1468 FILLER_128_41
*1469 FILLER_128_53
*1470 FILLER_128_65
*1471 FILLER_129_1165
*1472 FILLER_129_1177
*1473 FILLER_129_1189
*1474 FILLER_129_1201
*1475 FILLER_129_1213
*1476 FILLER_129_1217
*1477 FILLER_129_1219
*1478 FILLER_129_1231
*1479 FILLER_129_1243
*1480 FILLER_129_1255
*1481 FILLER_129_1267
*1482 FILLER_129_1273
*1483 FILLER_129_1275
*1484 FILLER_129_15
*1485 FILLER_129_27
*1486 FILLER_129_3
*1487 FILLER_129_39
*1488 FILLER_129_51
*1489 FILLER_129_55
*1490 FILLER_129_57
*1491 FILLER_129_69
*1492 FILLER_12_1165
*1493 FILLER_12_1177
*1494 FILLER_12_1189
*1495 FILLER_12_1191
*1496 FILLER_12_1203
*1497 FILLER_12_1215
*1498 FILLER_12_1227
*1499 FILLER_12_1239
*1500 FILLER_12_1245
*1501 FILLER_12_1247
*1502 FILLER_12_1259
*1503 FILLER_12_1271
*1504 FILLER_12_15
*1505 FILLER_12_27
*1506 FILLER_12_29
*1507 FILLER_12_3
*1508 FILLER_12_41
*1509 FILLER_12_53
*1510 FILLER_12_65
*1511 FILLER_130_1165
*1512 FILLER_130_1177
*1513 FILLER_130_1189
*1514 FILLER_130_1191
*1515 FILLER_130_1203
*1516 FILLER_130_1215
*1517 FILLER_130_1227
*1518 FILLER_130_1239
*1519 FILLER_130_1245
*1520 FILLER_130_1247
*1521 FILLER_130_1259
*1522 FILLER_130_1271
*1523 FILLER_130_15
*1524 FILLER_130_27
*1525 FILLER_130_29
*1526 FILLER_130_3
*1527 FILLER_130_41
*1528 FILLER_130_53
*1529 FILLER_130_65
*1530 FILLER_131_1165
*1531 FILLER_131_1177
*1532 FILLER_131_1189
*1533 FILLER_131_1201
*1534 FILLER_131_1213
*1535 FILLER_131_1217
*1536 FILLER_131_1219
*1537 FILLER_131_1231
*1538 FILLER_131_1243
*1539 FILLER_131_1255
*1540 FILLER_131_1267
*1541 FILLER_131_1273
*1542 FILLER_131_1275
*1543 FILLER_131_15
*1544 FILLER_131_27
*1545 FILLER_131_3
*1546 FILLER_131_39
*1547 FILLER_131_51
*1548 FILLER_131_55
*1549 FILLER_131_57
*1550 FILLER_131_69
*1551 FILLER_132_1165
*1552 FILLER_132_1177
*1553 FILLER_132_1189
*1554 FILLER_132_1191
*1555 FILLER_132_1203
*1556 FILLER_132_1215
*1557 FILLER_132_1227
*1558 FILLER_132_1239
*1559 FILLER_132_1245
*1560 FILLER_132_1247
*1561 FILLER_132_1259
*1562 FILLER_132_1271
*1563 FILLER_132_15
*1564 FILLER_132_27
*1565 FILLER_132_29
*1566 FILLER_132_3
*1567 FILLER_132_41
*1568 FILLER_132_53
*1569 FILLER_132_65
*1570 FILLER_133_1165
*1571 FILLER_133_1177
*1572 FILLER_133_1189
*1573 FILLER_133_1201
*1574 FILLER_133_1213
*1575 FILLER_133_1217
*1576 FILLER_133_1219
*1577 FILLER_133_1231
*1578 FILLER_133_1243
*1579 FILLER_133_1255
*1580 FILLER_133_1267
*1581 FILLER_133_1273
*1582 FILLER_133_1275
*1583 FILLER_133_15
*1584 FILLER_133_27
*1585 FILLER_133_3
*1586 FILLER_133_39
*1587 FILLER_133_51
*1588 FILLER_133_55
*1589 FILLER_133_57
*1590 FILLER_133_69
*1591 FILLER_134_1165
*1592 FILLER_134_1177
*1593 FILLER_134_1189
*1594 FILLER_134_1191
*1595 FILLER_134_1203
*1596 FILLER_134_1215
*1597 FILLER_134_1227
*1598 FILLER_134_1239
*1599 FILLER_134_1245
*1600 FILLER_134_1247
*1601 FILLER_134_1259
*1602 FILLER_134_1271
*1603 FILLER_134_15
*1604 FILLER_134_27
*1605 FILLER_134_29
*1606 FILLER_134_3
*1607 FILLER_134_41
*1608 FILLER_134_53
*1609 FILLER_134_65
*1610 FILLER_135_1165
*1611 FILLER_135_1177
*1612 FILLER_135_1189
*1613 FILLER_135_1201
*1614 FILLER_135_1213
*1615 FILLER_135_1217
*1616 FILLER_135_1219
*1617 FILLER_135_1231
*1618 FILLER_135_1243
*1619 FILLER_135_1255
*1620 FILLER_135_1267
*1621 FILLER_135_1273
*1622 FILLER_135_1275
*1623 FILLER_135_15
*1624 FILLER_135_27
*1625 FILLER_135_3
*1626 FILLER_135_39
*1627 FILLER_135_51
*1628 FILLER_135_55
*1629 FILLER_135_57
*1630 FILLER_135_69
*1631 FILLER_136_1165
*1632 FILLER_136_1177
*1633 FILLER_136_1189
*1634 FILLER_136_1191