*SPEF "ieee 1481-1999"
*DESIGN "counter"
*DATE "00:48:14 Wednesday March 05, 2025"
*VENDOR "The OpenROAD Project"
*PROGRAM "OpenROAD"
*VERSION "edf00dff99f6c40d67a30c0e22a8191c5d2ed9d6"
*DESIGN_FLOW "NAME_SCOPE LOCAL" "PIN_CAP NONE"
*DIVIDER /
*DELIMITER :
*BUS_DELIMITER []
*T_UNIT 1 NS
*C_UNIT 1 PF
*R_UNIT 1 OHM
*L_UNIT 1 HENRY

*NAME_MAP
*1 addr00[0]
*2 addr00[1]
*3 addr00[2]
*4 addr00[3]
*5 addr00[4]
*6 addr00[5]
*7 addr00[6]
*8 addr00[7]
*9 addr01[0]
*10 addr01[1]
*11 addr01[2]
*12 addr01[3]
*13 addr01[4]
*14 addr01[5]
*15 addr01[6]
*16 addr01[7]
*17 clk
*18 csb00
*19 csb01
*20 din00[0]
*21 din00[10]
*22 din00[11]
*23 din00[12]
*24 din00[13]
*25 din00[14]
*26 din00[15]
*27 din00[1]
*28 din00[2]
*29 din00[3]
*30 din00[4]
*31 din00[5]
*32 din00[6]
*33 din00[7]
*34 din00[8]
*35 din00[9]
*36 din01[0]
*37 din01[10]
*38 din01[11]
*39 din01[12]
*40 din01[13]
*41 din01[14]
*42 din01[15]
*43 din01[1]
*44 din01[2]
*45 din01[3]
*46 din01[4]
*47 din01[5]
*48 din01[6]
*49 din01[7]
*50 din01[8]
*51 din01[9]
*52 rst
*53 sine_out[0]
*54 sine_out[10]
*55 sine_out[11]
*56 sine_out[12]
*57 sine_out[13]
*58 sine_out[14]
*59 sine_out[15]
*60 sine_out[1]
*61 sine_out[2]
*62 sine_out[3]
*63 sine_out[4]
*64 sine_out[5]
*65 sine_out[6]
*66 sine_out[7]
*67 sine_out[8]
*68 sine_out[9]
*71 _000_
*72 _001_
*73 _002_
*74 _003_
*75 _004_
*76 _005_
*77 _006_
*78 _007_
*79 _008_
*80 _009_
*81 _010_
*82 _011_
*83 _012_
*84 _013_
*85 _014_
*86 _015_
*87 _016_
*88 _017_
*89 _018_
*90 _019_
*91 _020_
*92 _021_
*93 _022_
*94 _023_
*95 _024_
*96 _025_
*97 _026_
*98 _027_
*99 _028_
*100 _029_
*101 _030_
*102 _031_
*103 _032_
*104 _033_
*105 _034_
*106 _035_
*107 _036_
*108 _037_
*109 _038_
*110 _039_
*111 _040_
*112 _041_
*113 _042_
*114 _043_
*115 _044_
*116 _045_
*117 _046_
*118 _047_
*119 _048_
*120 _049_
*121 _050_
*122 _051_
*123 _052_
*124 _053_
*125 _054_
*126 _055_
*127 _056_
*128 _057_
*129 _058_
*130 clknet_0_clk
*131 clknet_2_0__leaf_clk
*132 clknet_2_1__leaf_clk
*133 clknet_2_2__leaf_clk
*134 clknet_2_3__leaf_clk
*135 net1
*136 net10
*137 net11
*138 net12
*139 net13
*140 net14
*141 net15
*142 net16
*143 net17
*144 net18
*145 net19
*146 net2
*147 net20
*148 net21
*149 net22
*150 net23
*151 net24
*152 net25
*153 net26
*154 net27
*155 net28
*156 net29
*157 net3
*158 net30
*159 net31
*160 net32
*161 net33
*162 net34
*163 net35
*164 net36
*165 net37
*166 net38
*167 net39
*168 net4
*169 net40
*170 net41
*171 net42
*172 net43
*173 net44
*174 net45
*175 net46
*176 net47
*177 net48
*178 net49
*179 net5
*180 net50
*181 net51
*182 net52
*183 net53
*184 net54
*185 net55
*186 net56
*187 net57
*188 net58
*189 net59
*190 net6
*191 net60
*192 net61
*193 net62
*194 net63
*195 net64
*196 net65
*197 net66
*198 net67
*199 net68
*200 net69
*201 net7
*202 net70
*203 net71
*204 net72
*205 net73
*206 net74
*207 net75
*208 net76
*209 net77
*210 net78
*211 net79
*212 net8
*213 net80
*214 net81
*215 net82
*216 net83
*217 net84
*218 net85
*219 net86
*220 net87
*221 net88
*222 net89
*223 net9
*224 net90
*225 sine_out_temp0\[0\]
*226 sine_out_temp0\[10\]
*227 sine_out_temp0\[11\]
*228 sine_out_temp0\[12\]
*229 sine_out_temp0\[13\]
*230 sine_out_temp0\[14\]
*231 sine_out_temp0\[15\]
*232 sine_out_temp0\[1\]
*233 sine_out_temp0\[2\]
*234 sine_out_temp0\[3\]
*235 sine_out_temp0\[4\]
*236 sine_out_temp0\[5\]
*237 sine_out_temp0\[6\]
*238 sine_out_temp0\[7\]
*239 sine_out_temp0\[8\]
*240 sine_out_temp0\[9\]
*241 sine_out_temp1\[0\]
*242 sine_out_temp1\[10\]
*243 sine_out_temp1\[11\]
*244 sine_out_temp1\[12\]
*245 sine_out_temp1\[13\]
*246 sine_out_temp1\[14\]
*247 sine_out_temp1\[15\]
*248 sine_out_temp1\[1\]
*249 sine_out_temp1\[2\]
*250 sine_out_temp1\[3\]
*251 sine_out_temp1\[4\]
*252 sine_out_temp1\[5\]
*253 sine_out_temp1\[6\]
*254 sine_out_temp1\[7\]
*255 sine_out_temp1\[8\]
*256 sine_out_temp1\[9\]
*257 tcout\[0\]
*258 tcout\[1\]
*259 tcout\[2\]
*260 tcout\[3\]
*261 tcout\[4\]
*262 tcout\[5\]
*263 tcout\[6\]
*264 tcout\[7\]
*265 tcout\[8\]
*266 ANTENNA_1
*267 ANTENNA_2
*268 ANTENNA_3
*269 ANTENNA_4
*270 ANTENNA_5
*271 ANTENNA_6
*272 ANTENNA_7
*273 ANTENNA_8
*274 ANTENNA_9
*275 ANTENNA__061__A
*276 ANTENNA__063__A1
*277 ANTENNA__063__S
*278 ANTENNA__064__A1
*279 ANTENNA__064__S
*280 ANTENNA__065__A1
*281 ANTENNA__065__S
*282 ANTENNA__066__A1
*283 ANTENNA__066__S
*284 ANTENNA__067__A1
*285 ANTENNA__067__S
*286 ANTENNA__067__X
*287 ANTENNA__068__A1
*288 ANTENNA__068__S
*289 ANTENNA__068__X
*290 ANTENNA__069__A1
*291 ANTENNA__069__S
*292 ANTENNA__070__A0
*293 ANTENNA__070__A1
*294 ANTENNA__070__S
*295 ANTENNA__071__A1
*296 ANTENNA__071__S
*297 ANTENNA__072__A1
*298 ANTENNA__072__S
*299 ANTENNA__073__A1
*300 ANTENNA__074__A1
*301 ANTENNA__075__A1
*302 ANTENNA__075__X
*303 ANTENNA__076__A1
*304 ANTENNA__077__A1
*305 ANTENNA__077__X
*306 ANTENNA__078__A1
*307 ANTENNA__079__A
*308 ANTENNA__079__B
*309 ANTENNA__080__A
*310 ANTENNA__080__B
*311 ANTENNA__080__C
*312 ANTENNA__081__A1
*313 ANTENNA__081__A2
*314 ANTENNA__081__B1
*315 ANTENNA__081__Y
*316 ANTENNA__082__B
*317 ANTENNA__083__A
*318 ANTENNA__083__B
*319 ANTENNA__083__C
*320 ANTENNA__083__D
*321 ANTENNA__083__X
*322 ANTENNA__084__A
*323 ANTENNA__085__A
*324 ANTENNA__086__A
*325 ANTENNA__086__B
*326 ANTENNA__087__A
*327 ANTENNA__087__B
*328 ANTENNA__087__C
*329 ANTENNA__088__A1
*330 ANTENNA__088__A2
*331 ANTENNA__088__B1
*332 ANTENNA__090__A
*333 ANTENNA__091__A
*334 ANTENNA__091__B
*335 ANTENNA__092__A
*336 ANTENNA__092__B
*337 ANTENNA__092__C
*338 ANTENNA__092__X
*339 ANTENNA__093__A1
*340 ANTENNA__093__A2
*341 ANTENNA__093__A3
*342 ANTENNA__093__A4
*343 ANTENNA__093__B1
*344 ANTENNA__093__X
*345 ANTENNA__094__A_N
*346 ANTENNA__094__B
*347 ANTENNA__095__B
*348 ANTENNA__096__A
*349 ANTENNA__102__A
*350 ANTENNA__104__A
*351 ANTENNA__106__A
*352 ANTENNA__108__A
*353 ANTENNA__109__A
*354 ANTENNA__111__A
*355 ANTENNA__112__A
*356 ANTENNA__113__A
*357 ANTENNA__114__A
*358 ANTENNA__115__A
*359 ANTENNA__116__A
*360 ANTENNA__117__A
*361 ANTENNA__118__A
*362 ANTENNA__119__A
*363 ANTENNA__120__CLK
*364 ANTENNA__120__Q
*365 ANTENNA__121__CLK
*366 ANTENNA__121__Q
*367 ANTENNA__122__CLK
*368 ANTENNA__122__Q
*369 ANTENNA__123__CLK
*370 ANTENNA__123__Q
*371 ANTENNA__124__CLK
*372 ANTENNA__124__D
*373 ANTENNA__125__CLK
*374 ANTENNA__125__Q
*375 ANTENNA__126__CLK
*376 ANTENNA__126__D
*377 ANTENNA__127__CLK
*378 ANTENNA__128__CLK
*379 ANTENNA__128__Q
*380 ANTENNA__129__CLK
*381 ANTENNA__129__Q
*382 ANTENNA__130__CLK
*383 ANTENNA__130__Q
*384 ANTENNA__131__CLK
*385 ANTENNA__131__Q
*386 ANTENNA__132__CLK
*387 ANTENNA__132__Q
*388 ANTENNA__133__CLK
*389 ANTENNA__133__Q
*390 ANTENNA__134__CLK
*391 ANTENNA__134__Q
*392 ANTENNA__135__CLK
*393 ANTENNA__135__Q
*394 ANTENNA__136__CLK
*395 ANTENNA__137__CLK
*396 ANTENNA__137__Q
*397 ANTENNA__138__CLK
*398 ANTENNA__138__Q
*399 ANTENNA__139__CLK
*400 ANTENNA__139__Q
*401 ANTENNA__140__CLK
*402 ANTENNA__140__Q
*403 ANTENNA__141__CLK
*404 ANTENNA__141__D
*405 ANTENNA__141__Q
*406 ANTENNA__142__CLK
*407 ANTENNA__142__D
*408 ANTENNA__142__Q
*409 ANTENNA__143__CLK
*410 ANTENNA__143__Q
*411 ANTENNA__144__CLK
*412 ANTENNA__144__Q
*413 ANTENNA_clkbuf_0_clk_A
*414 ANTENNA_clkbuf_0_clk_X
*415 ANTENNA_clkbuf_2_0__f_clk_A
*416 ANTENNA_clkbuf_2_0__f_clk_X
*417 ANTENNA_clkbuf_2_1__f_clk_A
*418 ANTENNA_clkbuf_2_1__f_clk_X
*419 ANTENNA_clkbuf_2_2__f_clk_A
*420 ANTENNA_clkbuf_2_2__f_clk_X
*421 ANTENNA_clkbuf_2_3__f_clk_A
*422 ANTENNA_clkbuf_2_3__f_clk_X
*423 ANTENNA_clkload0_A
*424 ANTENNA_clkload1_A
*425 ANTENNA_clkload2_A
*426 ANTENNA_fanout84_X
*427 ANTENNA_fanout86_A
*428 ANTENNA_fanout87_A
*429 ANTENNA_fanout87_X
*430 ANTENNA_fanout88_X
*431 ANTENNA_input10_A
*432 ANTENNA_input10_X
*433 ANTENNA_input11_A
*434 ANTENNA_input12_A
*435 ANTENNA_input13_A
*436 ANTENNA_input14_A
*437 ANTENNA_input15_A
*438 ANTENNA_input16_A
*439 ANTENNA_input17_A
*440 ANTENNA_input18_A
*441 ANTENNA_input19_A
*442 ANTENNA_input1_A
*443 ANTENNA_input20_A
*444 ANTENNA_input21_A
*445 ANTENNA_input22_A
*446 ANTENNA_input23_A
*447 ANTENNA_input24_A
*448 ANTENNA_input25_A
*449 ANTENNA_input26_A
*450 ANTENNA_input27_A
*451 ANTENNA_input28_A
*452 ANTENNA_input29_A
*453 ANTENNA_input2_A
*454 ANTENNA_input30_A
*455 ANTENNA_input31_A
*456 ANTENNA_input32_A
*457 ANTENNA_input33_A
*458 ANTENNA_input34_A
*459 ANTENNA_input35_A
*460 ANTENNA_input35_X
*461 ANTENNA_input36_A
*462 ANTENNA_input36_X
*463 ANTENNA_input37_A
*464 ANTENNA_input37_X
*465 ANTENNA_input38_A
*466 ANTENNA_input38_X
*467 ANTENNA_input39_A
*468 ANTENNA_input39_X
*469 ANTENNA_input3_A
*470 ANTENNA_input40_A
*471 ANTENNA_input40_X
*472 ANTENNA_input41_A
*473 ANTENNA_input41_X
*474 ANTENNA_input42_A
*475 ANTENNA_input42_X
*476 ANTENNA_input43_A
*477 ANTENNA_input43_X
*478 ANTENNA_input44_A
*479 ANTENNA_input44_X
*480 ANTENNA_input45_A
*481 ANTENNA_input45_X
*482 ANTENNA_input46_A
*483 ANTENNA_input46_X
*484 ANTENNA_input47_A
*485 ANTENNA_input47_X
*486 ANTENNA_input48_A
*487 ANTENNA_input48_X
*488 ANTENNA_input49_A
*489 ANTENNA_input49_X
*490 ANTENNA_input4_A
*491 ANTENNA_input50_A
*492 ANTENNA_input50_X
*493 ANTENNA_input51_A
*494 ANTENNA_input5_A
*495 ANTENNA_input6_A
*496 ANTENNA_input7_A
*497 ANTENNA_input8_A
*498 ANTENNA_input9_A
*499 ANTENNA_input9_X
*500 ANTENNA_mem_i0_addr1\[0\]
*501 ANTENNA_mem_i0_addr1\[1\]
*502 ANTENNA_mem_i0_addr1\[2\]
*503 ANTENNA_mem_i0_addr1\[3\]
*504 ANTENNA_mem_i0_addr1\[4\]
*505 ANTENNA_mem_i0_addr1\[5\]
*506 ANTENNA_mem_i0_addr1\[6\]
*507 ANTENNA_mem_i0_addr1\[7\]
*508 ANTENNA_mem_i0_clk0
*509 ANTENNA_mem_i0_clk1
*510 ANTENNA_mem_i0_dout1\[7\]
*511 ANTENNA_mem_i1_addr0\[0\]
*512 ANTENNA_mem_i1_addr0\[1\]
*513 ANTENNA_mem_i1_addr1\[0\]
*514 ANTENNA_mem_i1_addr1\[1\]
*515 ANTENNA_mem_i1_addr1\[2\]
*516 ANTENNA_mem_i1_addr1\[3\]
*517 ANTENNA_mem_i1_addr1\[4\]
*518 ANTENNA_mem_i1_addr1\[5\]
*519 ANTENNA_mem_i1_addr1\[6\]
*520 ANTENNA_mem_i1_addr1\[7\]
*521 ANTENNA_mem_i1_clk0
*522 ANTENNA_mem_i1_clk1
*523 ANTENNA_mem_i1_din0\[0\]
*524 ANTENNA_mem_i1_din0\[10\]
*525 ANTENNA_mem_i1_din0\[11\]
*526 ANTENNA_mem_i1_din0\[12\]
*527 ANTENNA_mem_i1_din0\[13\]
*528 ANTENNA_mem_i1_din0\[14\]
*529 ANTENNA_mem_i1_din0\[15\]
*530 ANTENNA_mem_i1_din0\[1\]
*531 ANTENNA_mem_i1_din0\[2\]
*532 ANTENNA_mem_i1_din0\[3\]
*533 ANTENNA_mem_i1_din0\[4\]
*534 ANTENNA_mem_i1_din0\[5\]
*535 ANTENNA_mem_i1_din0\[6\]
*536 ANTENNA_mem_i1_din0\[7\]
*537 ANTENNA_mem_i1_din0\[8\]
*538 ANTENNA_mem_i1_din0\[9\]
*539 ANTENNA_output52_A
*540 ANTENNA_output53_A
*541 ANTENNA_output54_A
*542 ANTENNA_output56_A
*543 ANTENNA_output59_A
*544 ANTENNA_output60_A
*545 ANTENNA_output61_A
*546 ANTENNA_output62_A
*547 ANTENNA_output63_A
*548 ANTENNA_output64_A
*549 ANTENNA_output65_A
*550 ANTENNA_output66_A
*551 ANTENNA_output67_A
*552 ANTENNA_wire68_X
*553 ANTENNA_wire69_X
*554 ANTENNA_wire70_X
*555 ANTENNA_wire71_X
*556 ANTENNA_wire72_X
*557 ANTENNA_wire73_X
*558 ANTENNA_wire74_X
*559 ANTENNA_wire75_X
*560 ANTENNA_wire76_X
*561 ANTENNA_wire77_X
*562 ANTENNA_wire78_X
*563 ANTENNA_wire79_X
*564 ANTENNA_wire80_X
*565 ANTENNA_wire81_X
*566 ANTENNA_wire82_X
*567 ANTENNA_wire83_X
*568 FILLER_0_1005
*569 FILLER_0_1009
*570 FILLER_0_1021
*571 FILLER_0_1033
*572 FILLER_0_1037
*573 FILLER_0_1049
*574 FILLER_0_1061
*575 FILLER_0_1065
*576 FILLER_0_1077
*577 FILLER_0_1089
*578 FILLER_0_109
*579 FILLER_0_1093
*580 FILLER_0_1105
*581 FILLER_0_1117
*582 FILLER_0_1121
*583 FILLER_0_113
*584 FILLER_0_1133
*585 FILLER_0_1145
*586 FILLER_0_1149
*587 FILLER_0_1161
*588 FILLER_0_1167
*589 FILLER_0_125
*590 FILLER_0_137
*591 FILLER_0_141
*592 FILLER_0_15
*593 FILLER_0_153
*594 FILLER_0_165
*595 FILLER_0_169
*596 FILLER_0_181
*597 FILLER_0_193
*598 FILLER_0_197
*599 FILLER_0_209
*600 FILLER_0_221
*601 FILLER_0_225
*602 FILLER_0_237
*603 FILLER_0_244
*604 FILLER_0_258
*605 FILLER_0_266
*606 FILLER_0_27
*607 FILLER_0_272
*608 FILLER_0_286
*609 FILLER_0_29
*610 FILLER_0_294
*611 FILLER_0_3
*612 FILLER_0_300
*613 FILLER_0_307
*614 FILLER_0_309
*615 FILLER_0_315
*616 FILLER_0_321
*617 FILLER_0_329
*618 FILLER_0_335
*619 FILLER_0_337
*620 FILLER_0_343
*621 FILLER_0_349
*622 FILLER_0_357
*623 FILLER_0_363
*624 FILLER_0_365
*625 FILLER_0_371
*626 FILLER_0_377
*627 FILLER_0_384
*628 FILLER_0_398
*629 FILLER_0_406
*630 FILLER_0_41
*631 FILLER_0_412
*632 FILLER_0_426
*633 FILLER_0_434
*634 FILLER_0_440
*635 FILLER_0_447
*636 FILLER_0_449
*637 FILLER_0_455
*638 FILLER_0_461
*639 FILLER_0_473
*640 FILLER_0_477
*641 FILLER_0_489
*642 FILLER_0_501
*643 FILLER_0_505
*644 FILLER_0_517
*645 FILLER_0_529
*646 FILLER_0_53
*647 FILLER_0_533
*648 FILLER_0_545
*649 FILLER_0_557
*650 FILLER_0_561
*651 FILLER_0_57
*652 FILLER_0_573
*653 FILLER_0_585
*654 FILLER_0_589
*655 FILLER_0_601
*656 FILLER_0_613
*657 FILLER_0_617
*658 FILLER_0_629
*659 FILLER_0_641
*660 FILLER_0_645
*661 FILLER_0_657
*662 FILLER_0_669
*663 FILLER_0_673
*664 FILLER_0_685
*665 FILLER_0_69
*666 FILLER_0_697
*667 FILLER_0_701
*668 FILLER_0_713
*669 FILLER_0_725
*670 FILLER_0_729
*671 FILLER_0_741
*672 FILLER_0_753
*673 FILLER_0_757
*674 FILLER_0_769
*675 FILLER_0_781
*676 FILLER_0_785
*677 FILLER_0_797
*678 FILLER_0_809
*679 FILLER_0_81
*680 FILLER_0_813
*681 FILLER_0_825
*682 FILLER_0_837
*683 FILLER_0_841
*684 FILLER_0_85
*685 FILLER_0_853
*686 FILLER_0_865
*687 FILLER_0_869
*688 FILLER_0_881
*689 FILLER_0_893
*690 FILLER_0_897
*691 FILLER_0_909
*692 FILLER_0_921
*693 FILLER_0_925
*694 FILLER_0_937
*695 FILLER_0_949
*696 FILLER_0_953
*697 FILLER_0_965
*698 FILLER_0_97
*699 FILLER_0_977
*700 FILLER_0_981
*701 FILLER_0_993
*702 FILLER_100_1134
*703 FILLER_100_1146
*704 FILLER_100_1148
*705 FILLER_100_1160
*706 FILLER_100_15
*707 FILLER_100_27
*708 FILLER_100_29
*709 FILLER_100_3
*710 FILLER_100_41
*711 FILLER_100_53
*712 FILLER_100_65
*713 FILLER_101_1126
*714 FILLER_101_1138
*715 FILLER_101_1150
*716 FILLER_101_1162
*717 FILLER_101_15
*718 FILLER_101_27
*719 FILLER_101_3
*720 FILLER_101_39
*721 FILLER_101_51
*722 FILLER_101_55
*723 FILLER_101_57
*724 FILLER_101_69
*725 FILLER_102_1122
*726 FILLER_102_1134
*727 FILLER_102_1146
*728 FILLER_102_1148
*729 FILLER_102_1160
*730 FILLER_102_15
*731 FILLER_102_27
*732 FILLER_102_29
*733 FILLER_102_3
*734 FILLER_102_41
*735 FILLER_102_53
*736 FILLER_102_65
*737 FILLER_103_1122
*738 FILLER_103_1134
*739 FILLER_103_1146
*740 FILLER_103_1158
*741 FILLER_103_1166
*742 FILLER_103_15
*743 FILLER_103_27
*744 FILLER_103_3
*745 FILLER_103_39
*746 FILLER_103_51
*747 FILLER_103_55
*748 FILLER_103_57
*749 FILLER_103_69
*750 FILLER_104_1122
*751 FILLER_104_1134
*752 FILLER_104_1146
*753 FILLER_104_1148
*754 FILLER_104_1160
*755 FILLER_104_15
*756 FILLER_104_27
*757 FILLER_104_29
*758 FILLER_104_3
*759 FILLER_104_41
*760 FILLER_104_53
*761 FILLER_104_65
*762 FILLER_105_1125
*763 FILLER_105_1137
*764 FILLER_105_1149
*765 FILLER_105_1161
*766 FILLER_105_1167
*767 FILLER_105_15
*768 FILLER_105_27
*769 FILLER_105_3
*770 FILLER_105_39
*771 FILLER_105_51
*772 FILLER_105_55
*773 FILLER_105_57
*774 FILLER_105_69
*775 FILLER_106_1125
*776 FILLER_106_1137
*777 FILLER_106_1145
*778 FILLER_106_1148
*779 FILLER_106_1160
*780 FILLER_106_15
*781 FILLER_106_27
*782 FILLER_106_29
*783 FILLER_106_3
*784 FILLER_106_41
*785 FILLER_106_53
*786 FILLER_106_65
*787 FILLER_107_1122
*788 FILLER_107_1134
*789 FILLER_107_1146
*790 FILLER_107_1158
*791 FILLER_107_1166
*792 FILLER_107_15
*793 FILLER_107_27
*794 FILLER_107_3
*795 FILLER_107_39
*796 FILLER_107_51
*797 FILLER_107_55
*798 FILLER_107_57
*799 FILLER_107_69
*800 FILLER_108_1122
*801 FILLER_108_1134
*802 FILLER_108_1146
*803 FILLER_108_1148
*804 FILLER_108_1160
*805 FILLER_108_15
*806 FILLER_108_27
*807 FILLER_108_29
*808 FILLER_108_3
*809 FILLER_108_41
*810 FILLER_108_53
*811 FILLER_108_65
*812 FILLER_109_11
*813 FILLER_109_1122
*814 FILLER_109_1134
*815 FILLER_109_1146
*816 FILLER_109_1158
*817 FILLER_109_1166
*818 FILLER_109_23
*819 FILLER_109_35
*820 FILLER_109_47
*821 FILLER_109_55
*822 FILLER_109_57
*823 FILLER_109_69
*824 FILLER_10_1122
*825 FILLER_10_1134
*826 FILLER_10_1146
*827 FILLER_10_1148
*828 FILLER_10_1160
*829 FILLER_10_15
*830 FILLER_10_27
*831 FILLER_10_29
*832 FILLER_10_3
*833 FILLER_10_41
*834 FILLER_10_53
*835 FILLER_10_65
*836 FILLER_110_11
*837 FILLER_110_1122
*838 FILLER_110_1134
*839 FILLER_110_1146
*840 FILLER_110_1148
*841 FILLER_110_1160
*842 FILLER_110_23
*843 FILLER_110_27
*844 FILLER_110_29
*845 FILLER_110_41
*846 FILLER_110_53
*847 FILLER_110_65
*848 FILLER_111_1122
*849 FILLER_111_1134
*850 FILLER_111_1146
*851 FILLER_111_1158
*852 FILLER_111_1166
*853 FILLER_111_21
*854 FILLER_111_33
*855 FILLER_111_45
*856 FILLER_111_53
*857 FILLER_111_57
*858 FILLER_111_69
*859 FILLER_111_9
*860 FILLER_112_1122
*861 FILLER_112_1134
*862 FILLER_112_1146
*863 FILLER_112_1148
*864 FILLER_112_1160
*865 FILLER_112_21
*866 FILLER_112_27
*867 FILLER_112_29
*868 FILLER_112_41
*869 FILLER_112_53
*870 FILLER_112_65
*871 FILLER_112_9
*872 FILLER_113_1122
*873 FILLER_113_1134
*874 FILLER_113_1146
*875 FILLER_113_1158
*876 FILLER_113_1166
*877 FILLER_113_15
*878 FILLER_113_27
*879 FILLER_113_3
*880 FILLER_113_39
*881 FILLER_113_51
*882 FILLER_113_55
*883 FILLER_113_57
*884 FILLER_113_69
*885 FILLER_114_1122
*886 FILLER_114_1134
*887 FILLER_114_1146
*888 FILLER_114_1148
*889 FILLER_114_1160
*890 FILLER_114_21
*891 FILLER_114_27
*892 FILLER_114_29
*893 FILLER_114_41
*894 FILLER_114_53
*895 FILLER_114_65
*896 FILLER_114_9
*897 FILLER_115_1122
*898 FILLER_115_1134
*899 FILLER_115_1146
*900 FILLER_115_1158
*901 FILLER_115_21
*902 FILLER_115_33
*903 FILLER_115_45
*904 FILLER_115_53
*905 FILLER_115_57
*906 FILLER_115_69
*907 FILLER_115_9
*908 FILLER_116_1122
*909 FILLER_116_1134
*910 FILLER_116_1146
*911 FILLER_116_1148
*912 FILLER_116_1160
*913 FILLER_116_21
*914 FILLER_116_27
*915 FILLER_116_29
*916 FILLER_116_41
*917 FILLER_116_53
*918 FILLER_116_65
*919 FILLER_116_9
*920 FILLER_117_1007
*921 FILLER_117_1035
*922 FILLER_117_1073
*923 FILLER_117_1080
*924 FILLER_117_109
*925 FILLER_117_1093
*926 FILLER_117_1105
*927 FILLER_117_1117
*928 FILLER_117_1121
*929 FILLER_117_113
*930 FILLER_117_1133
*931 FILLER_117_1145
*932 FILLER_117_1149
*933 FILLER_117_1161
*934 FILLER_117_125
*935 FILLER_117_137
*936 FILLER_117_141
*937 FILLER_117_153
*938 FILLER_117_165
*939 FILLER_117_169
*940 FILLER_117_181
*941 FILLER_117_193
*942 FILLER_117_197
*943 FILLER_117_209
*944 FILLER_117_21
*945 FILLER_117_221
*946 FILLER_117_251
*947 FILLER_117_253
*948 FILLER_117_265
*949 FILLER_117_27
*950 FILLER_117_277
*951 FILLER_117_281
*952 FILLER_117_29
*953 FILLER_117_293
*954 FILLER_117_301
*955 FILLER_117_304
*956 FILLER_117_309
*957 FILLER_117_321
*958 FILLER_117_329
*959 FILLER_117_335
*960 FILLER_117_337
*961 FILLER_117_349
*962 FILLER_117_361
*963 FILLER_117_365
*964 FILLER_117_377
*965 FILLER_117_389
*966 FILLER_117_393
*967 FILLER_117_405
*968 FILLER_117_41
*969 FILLER_117_417
*970 FILLER_117_421
*971 FILLER_117_433
*972 FILLER_117_445
*973 FILLER_117_449
*974 FILLER_117_461
*975 FILLER_117_473
*976 FILLER_117_477
*977 FILLER_117_489
*978 FILLER_117_501
*979 FILLER_117_505
*980 FILLER_117_517
*981 FILLER_117_529
*982 FILLER_117_53
*983 FILLER_117_533
*984 FILLER_117_545
*985 FILLER_117_557
*986 FILLER_117_561
*987 FILLER_117_569
*988 FILLER_117_57
*989 FILLER_117_572
*990 FILLER_117_584
*991 FILLER_117_589
*992 FILLER_117_601
*993 FILLER_117_641
*994 FILLER_117_645
*995 FILLER_117_657
*996 FILLER_117_669
*997 FILLER_117_673
*998 FILLER_117_685
*999 FILLER_117_69
*1000 FILLER_117_697
*1001 FILLER_117_701
*1002 FILLER_117_713
*1003 FILLER_117_725
*1004 FILLER_117_729
*1005 FILLER_117_741
*1006 FILLER_117_753
*1007 FILLER_117_757
*1008 FILLER_117_769
*1009 FILLER_117_781
*1010 FILLER_117_785
*1011 FILLER_117_797
*1012 FILLER_117_809
*1013 FILLER_117_81
*1014 FILLER_117_813
*1015 FILLER_117_825
*1016 FILLER_117_837
*1017 FILLER_117_841
*1018 FILLER_117_85
*1019 FILLER_117_853
*1020 FILLER_117_865
*1021 FILLER_117_869
*1022 FILLER_117_881
*1023 FILLER_117_893
*1024 FILLER_117_9
*1025 FILLER_117_919
*1026 FILLER_117_953
*1027 FILLER_117_97
*1028 FILLER_118_1029
*1029 FILLER_118_1034
*1030 FILLER_118_1041
*1031 FILLER_118_1074
*1032 FILLER_118_1086
*1033 FILLER_118_109
*1034 FILLER_118_1098
*1035 FILLER_118_1110
*1036 FILLER_118_1122
*1037 FILLER_118_1134
*1038 FILLER_118_1146
*1039 FILLER_118_1149
*1040 FILLER_118_1161
*1041 FILLER_118_1167
*1042 FILLER_118_121
*1043 FILLER_118_133
*1044 FILLER_118_139
*1045 FILLER_118_141
*1046 FILLER_118_15
*1047 FILLER_118_153
*1048 FILLER_118_165
*1049 FILLER_118_173
*1050 FILLER_118_180
*1051 FILLER_118_192
*1052 FILLER_118_197
*1053 FILLER_118_209
*1054 FILLER_118_236
*1055 FILLER_118_248
*1056 FILLER_118_27
*1057 FILLER_118_277
*1058 FILLER_118_281
*1059 FILLER_118_29
*1060 FILLER_118_3
*1061 FILLER_118_305
*1062 FILLER_118_313
*1063 FILLER_118_339
*1064 FILLER_118_361
*1065 FILLER_118_365
*1066 FILLER_118_377
*1067 FILLER_118_389
*1068 FILLER_118_401
*1069 FILLER_118_41
*1070 FILLER_118_413
*1071 FILLER_118_419
*1072 FILLER_118_421
*1073 FILLER_118_433
*1074 FILLER_118_445
*1075 FILLER_118_457
*1076 FILLER_118_469
*1077 FILLER_118_475
*1078 FILLER_118_477
*1079 FILLER_118_489
*1080 FILLER_118_501
*1081 FILLER_118_513
*1082 FILLER_118_525
*1083 FILLER_118_53
*1084 FILLER_118_531
*1085 FILLER_118_533
*1086 FILLER_118_545
*1087 FILLER_118_557
*1088 FILLER_118_569
*1089 FILLER_118_581
*1090 FILLER_118_587
*1091 FILLER_118_589
*1092 FILLER_118_601
*1093 FILLER_118_613
*1094 FILLER_118_618
*1095 FILLER_118_630
*1096 FILLER_118_642
*1097 FILLER_118_645
*1098 FILLER_118_65
*1099 FILLER_118_657
*1100 FILLER_118_669
*1101 FILLER_118_681
*1102 FILLER_118_693
*1103 FILLER_118_699
*1104 FILLER_118_701
*1105 FILLER_118_713
*1106 FILLER_118_725
*1107 FILLER_118_729
*1108 FILLER_118_733
*1109 FILLER_118_755
*1110 FILLER_118_759
*1111 FILLER_118_765
*1112 FILLER_118_77
*1113 FILLER_118_777
*1114 FILLER_118_789
*1115 FILLER_118_801
*1116 FILLER_118_809
*1117 FILLER_118_813
*1118 FILLER_118_825
*1119 FILLER_118_83
*1120 FILLER_118_85
*1121 FILLER_118_860
*1122 FILLER_118_869
*1123 FILLER_118_881
*1124 FILLER_118_922
*1125 FILLER_118_97
*1126 FILLER_118_977
*1127 FILLER_119_1016
*1128 FILLER_119_1044
*1129 FILLER_119_105
*1130 FILLER_119_1056
*1131 FILLER_119_1065
*1132 FILLER_119_1077
*1133 FILLER_119_1089
*1134 FILLER_119_1101
*1135 FILLER_119_111
*1136 FILLER_119_1113
*1137 FILLER_119_1119
*1138 FILLER_119_1121
*1139 FILLER_119_113
*1140 FILLER_119_1133
*1141 FILLER_119_1145
*1142 FILLER_119_1157
*1143 FILLER_119_1161
*1144 FILLER_119_125
*1145 FILLER_119_137
*1146 FILLER_119_149
*1147 FILLER_119_161
*1148 FILLER_119_167
*1149 FILLER_119_169
*1150 FILLER_119_181
*1151 FILLER_119_21
*1152 FILLER_119_217
*1153 FILLER_119_223
*1154 FILLER_119_225
*1155 FILLER_119_237
*1156 FILLER_119_265
*1157 FILLER_119_277
*1158 FILLER_119_281
*1159 FILLER_119_293
*1160 FILLER_119_305
*1161 FILLER_119_313
*1162 FILLER_119_326
*1163 FILLER_119_33
*1164 FILLER_119_334
*1165 FILLER_119_337
*1166 FILLER_119_345
*1167 FILLER_119_362
*1168 FILLER_119_381
*1169 FILLER_119_389
*1170 FILLER_119_393
*1171 FILLER_119_405
*1172 FILLER_119_421
*1173 FILLER_119_437
*1174 FILLER_119_445
*1175 FILLER_119_449
*1176 FILLER_119_45
*1177 FILLER_119_461
*1178 FILLER_119_465
*1179 FILLER_119_479
*1180 FILLER_119_487
*1181 FILLER_119_503
*1182 FILLER_119_507
*1183 FILLER_119_519
*1184 FILLER_119_53
*1185 FILLER_119_531
*1186 FILLER_119_543
*1187 FILLER_119_555
*1188 FILLER_119_559
*1189 FILLER_119_561
*1190 FILLER_119_57
*1191 FILLER_119_573
*1192 FILLER_119_585
*1193 FILLER_119_597
*1194 FILLER_119_609
*1195 FILLER_119_615
*1196 FILLER_119_617
*1197 FILLER_119_629
*1198 FILLER_119_641
*1199 FILLER_119_667
*1200 FILLER_119_671
*1201 FILLER_119_673
*1202 FILLER_119_685
*1203 FILLER_119_69
*1204 FILLER_119_697
*1205 FILLER_119_724
*1206 FILLER_119_727
*1207 FILLER_119_738
*1208 FILLER_119_742
*1209 FILLER_119_776
*1210 FILLER_119_796
*1211 FILLER_119_81
*1212 FILLER_119_813
*1213 FILLER_119_821
*1214 FILLER_119_829
*1215 FILLER_119_837
*1216 FILLER_119_841
*1217 FILLER_119_851
*1218 FILLER_119_863
*1219 FILLER_119_875
*1220 FILLER_119_887
*1221 FILLER_119_895
*1222 FILLER_119_897
*1223 FILLER_119_9
*1224 FILLER_119_909
*1225 FILLER_119_93
*1226 FILLER_119_940
*1227 FILLER_119_944
*1228 FILLER_119_955
*1229 FILLER_119_987
*1230 FILLER_11_1122
*1231 FILLER_11_1134
*1232 FILLER_11_1146
*1233 FILLER_11_1158
*1234 FILLER_11_1166
*1235 FILLER_11_15
*1236 FILLER_11_27
*1237 FILLER_11_3
*1238 FILLER_11_39
*1239 FILLER_11_51
*1240 FILLER_11_55
*1241 FILLER_11_57
*1242 FILLER_11_69
*1243 FILLER_120_1002
*1244 FILLER_120_1057
*1245 FILLER_120_1063
*1246 FILLER_120_1065
*1247 FILLER_120_1077
*1248 FILLER_120_1089
*1249 FILLER_120_109
*1250 FILLER_120_1093
*1251 FILLER_120_11
*1252 FILLER_120_1105
*1253 FILLER_120_1117
*1254 FILLER_120_1121
*1255 FILLER_120_113
*1256 FILLER_120_1133
*1257 FILLER_120_1145
*1258 FILLER_120_1149
*1259 FILLER_120_1161
*1260 FILLER_120_125
*1261 FILLER_120_137
*1262 FILLER_120_141
*1263 FILLER_120_153
*1264 FILLER_120_161
*1265 FILLER_120_165
*1266 FILLER_120_169
*1267 FILLER_120_181
*1268 FILLER_120_193
*1269 FILLER_120_197
*1270 FILLER_120_209
*1271 FILLER_120_221
*1272 FILLER_120_225
*1273 FILLER_120_23
*1274 FILLER_120_237
*1275 FILLER_120_245
*1276 FILLER_120_251
*1277 FILLER_120_253
*1278 FILLER_120_258
*1279 FILLER_120_266
*1280 FILLER_120_27
*1281 FILLER_120_271
*1282 FILLER_120_279
*1283 FILLER_120_283
*1284 FILLER_120_29
*1285 FILLER_120_291
*1286 FILLER_120_296
*1287 FILLER_120_300
*1288 FILLER_120_306
*1289 FILLER_120_311
*1290 FILLER_120_321
*1291 FILLER_120_329
*1292 FILLER_120_334
*1293 FILLER_120_337
*1294 FILLER_120_347
*1295 FILLER_120_355
*1296 FILLER_120_359
*1297 FILLER_120_363
*1298 FILLER_120_365
*1299 FILLER_120_369
*1300 FILLER_120_372
*1301 FILLER_120_380
*1302 FILLER_120_385
*1303 FILLER_120_391
*1304 FILLER_120_393
*1305 FILLER_120_397
*1306 FILLER_120_405
*1307 FILLER_120_41
*1308 FILLER_120_410
*1309 FILLER_120_418
*1310 FILLER_120_423
*1311 FILLER_120_431
*1312 FILLER_120_436
*1313 FILLER_120_444
*1314 FILLER_120_449
*1315 FILLER_120_457
*1316 FILLER_120_461
*1317 FILLER_120_473
*1318 FILLER_120_477
*1319 FILLER_120_489
*1320 FILLER_120_501
*1321 FILLER_120_505
*1322 FILLER_120_517
*1323 FILLER_120_529
*1324 FILLER_120_53
*1325 FILLER_120_533
*1326 FILLER_120_545
*1327 FILLER_120_557
*1328 FILLER_120_561
*1329 FILLER_120_57
*1330 FILLER_120_573
*1331 FILLER_120_585
*1332 FILLER_120_589
*1333 FILLER_120_601
*1334 FILLER_120_613
*1335 FILLER_120_617
*1336 FILLER_120_629
*1337 FILLER_120_637
*1338 FILLER_120_671
*1339 FILLER_120_673
*1340 FILLER_120_685
*1341 FILLER_120_69
*1342 FILLER_120_697
*1343 FILLER_120_701
*1344 FILLER_120_713
*1345 FILLER_120_725
*1346 FILLER_120_729
*1347 FILLER_120_741
*1348 FILLER_120_749
*1349 FILLER_120_755
*1350 FILLER_120_757
*1351 FILLER_120_769
*1352 FILLER_120_781
*1353 FILLER_120_785
*1354 FILLER_120_797
*1355 FILLER_120_809
*1356 FILLER_120_81
*1357 FILLER_120_813
*1358 FILLER_120_825
*1359 FILLER_120_837
*1360 FILLER_120_841
*1361 FILLER_120_85
*1362 FILLER_120_853
*1363 FILLER_120_865
*1364 FILLER_120_869
*1365 FILLER_120_881
*1366 FILLER_120_893
*1367 FILLER_120_897
*1368 FILLER_120_909
*1369 FILLER_120_921
*1370 FILLER_120_925
*1371 FILLER_120_942
*1372 FILLER_120_946
*1373 FILLER_120_950
*1374 FILLER_120_959
*1375 FILLER_120_967
*1376 FILLER_120_97
*1377 FILLER_120_989
*1378 FILLER_120_996
*1379 FILLER_121_11
*1380 FILLER_121_1122
*1381 FILLER_121_1134
*1382 FILLER_121_1140
*1383 FILLER_121_1152
*1384 FILLER_121_23
*1385 FILLER_121_35
*1386 FILLER_121_47
*1387 FILLER_121_55
*1388 FILLER_121_57
*1389 FILLER_121_69
*1390 FILLER_122_11
*1391 FILLER_122_1122
*1392 FILLER_122_1134
*1393 FILLER_122_1146
*1394 FILLER_122_1148
*1395 FILLER_122_1160
*1396 FILLER_122_23
*1397 FILLER_122_27
*1398 FILLER_122_29
*1399 FILLER_122_41
*1400 FILLER_122_53
*1401 FILLER_122_65
*1402 FILLER_123_1122
*1403 FILLER_123_1134
*1404 FILLER_123_1146
*1405 FILLER_123_1158
*1406 FILLER_123_1166
*1407 FILLER_123_15
*1408 FILLER_123_27
*1409 FILLER_123_3
*1410 FILLER_123_39
*1411 FILLER_123_51
*1412 FILLER_123_55
*1413 FILLER_123_57
*1414 FILLER_123_69
*1415 FILLER_124_11
*1416 FILLER_124_1122
*1417 FILLER_124_1134
*1418 FILLER_124_1146
*1419 FILLER_124_1148
*1420 FILLER_124_1160
*1421 FILLER_124_23
*1422 FILLER_124_27
*1423 FILLER_124_29
*1424 FILLER_124_41
*1425 FILLER_124_53
*1426 FILLER_124_65
*1427 FILLER_125_1122
*1428 FILLER_125_1134
*1429 FILLER_125_1146
*1430 FILLER_125_1158
*1431 FILLER_125_1166
*1432 FILLER_125_15
*1433 FILLER_125_27
*1434 FILLER_125_39
*1435 FILLER_125_51
*1436 FILLER_125_55
*1437 FILLER_125_57
*1438 FILLER_125_69
*1439 FILLER_126_1122
*1440 FILLER_126_1134
*1441 FILLER_126_1146
*1442 FILLER_126_1148
*1443 FILLER_126_1160
*1444 FILLER_126_13
*1445 FILLER_126_25
*1446 FILLER_126_29
*1447 FILLER_126_41
*1448 FILLER_126_53
*1449 FILLER_126_65
*1450 FILLER_127_11
*1451 FILLER_127_1122
*1452 FILLER_127_1134
*1453 FILLER_127_1146
*1454 FILLER_127_1158
*1455 FILLER_127_1166
*1456 FILLER_127_23
*1457 FILLER_127_35
*1458 FILLER_127_47
*1459 FILLER_127_55
*1460 FILLER_127_57
*1461 FILLER_127_69
*1462 FILLER_128_1122
*1463 FILLER_128_1134
*1464 FILLER_128_1146
*1465 FILLER_128_1148
*1466 FILLER_128_1160
*1467 FILLER_128_15
*1468 FILLER_128_27
*1469 FILLER_128_29
*1470 FILLER_128_3
*1471 FILLER_128_41
*1472 FILLER_128_53
*1473 FILLER_128_65
*1474 FILLER_129_11
*1475 FILLER_129_1122
*1476 FILLER_129_1134
*1477 FILLER_129_1146
*1478 FILLER_129_1158
*1479 FILLER_129_1166
*1480 FILLER_129_23
*1481 FILLER_129_35
*1482 FILLER_129_47
*1483 FILLER_129_55
*1484 FILLER_129_57
*1485 FILLER_129_69
*1486 FILLER_12_1122
*1487 FILLER_12_1134
*1488 FILLER_12_1146
*1489 FILLER_12_1148
*1490 FILLER_12_1160
*1491 FILLER_12_15
*1492 FILLER_12_27
*1493 FILLER_12_29
*1494 FILLER_12_3
*1495 FILLER_12_41
*1496 FILLER_12_53
*1497 FILLER_12_65
*1498 FILLER_130_11
*1499 FILLER_130_1122
*1500 FILLER_130_1134
*1501 FILLER_130_1146
*1502 FILLER_130_1148
*1503 FILLER_130_1160
*1504 FILLER_130_23
*1505 FILLER_130_27
*1506 FILLER_130_29
*1507 FILLER_130_41
*1508 FILLER_130_53
*1509 FILLER_130_65
*1510 FILLER_131_11