*SPEF "ieee 1481-1999"
*DESIGN "counter"
*DATE "06:38:30 Tuesday March 04, 2025"
*VENDOR "The OpenROAD Project"
*PROGRAM "OpenROAD"
*VERSION "edf00dff99f6c40d67a30c0e22a8191c5d2ed9d6"
*DESIGN_FLOW "NAME_SCOPE LOCAL" "PIN_CAP NONE"
*DIVIDER /
*DELIMITER :
*BUS_DELIMITER []
*T_UNIT 1 NS
*C_UNIT 1 PF
*R_UNIT 1 OHM
*L_UNIT 1 HENRY

*NAME_MAP
*1 addr0[0]
*2 addr0[1]
*3 addr0[2]
*4 addr0[3]
*5 addr0[4]
*6 addr0[5]
*7 addr0[6]
*8 addr0[7]
*9 clk
*10 csb0
*11 din0[0]
*12 din0[10]
*13 din0[11]
*14 din0[12]
*15 din0[13]
*16 din0[14]
*17 din0[15]
*18 din0[1]
*19 din0[2]
*20 din0[3]
*21 din0[4]
*22 din0[5]
*23 din0[6]
*24 din0[7]
*25 din0[8]
*26 din0[9]
*27 rst
*28 sine_out[0]
*29 sine_out[10]
*30 sine_out[11]
*31 sine_out[12]
*32 sine_out[13]
*33 sine_out[14]
*34 sine_out[15]
*35 sine_out[1]
*36 sine_out[2]
*37 sine_out[3]
*38 sine_out[4]
*39 sine_out[5]
*40 sine_out[6]
*41 sine_out[7]
*42 sine_out[8]
*43 sine_out[9]
*46 _000_
*47 _001_
*48 _002_
*49 _003_
*50 _004_
*51 _005_
*52 _006_
*53 _007_
*54 _008_
*55 _009_
*56 _010_
*57 _011_
*58 _012_
*59 _013_
*60 _014_
*61 _015_
*62 _016_
*63 _017_
*64 _018_
*65 _019_
*66 _020_
*67 _021_
*68 _022_
*69 _023_
*70 _024_
*71 _025_
*72 _026_
*73 _027_
*74 _028_
*75 _029_
*76 _030_
*77 _031_
*78 _032_
*79 _033_
*80 _034_
*81 _035_
*82 _036_
*83 _037_
*84 _038_
*85 clknet_0_clk
*86 clknet_1_0__leaf_clk
*87 clknet_1_1__leaf_clk
*88 net1
*89 net10
*90 net11
*91 net12
*92 net13
*93 net14
*94 net15
*95 net16
*96 net17
*97 net18
*98 net19
*99 net2
*100 net20
*101 net21
*102 net22
*103 net23
*104 net24
*105 net25
*106 net3
*107 net4
*108 net5
*109 net6
*110 net7
*111 net8
*112 net9
*113 sine_out_temp\[0\]
*114 sine_out_temp\[10\]
*115 sine_out_temp\[11\]
*116 sine_out_temp\[12\]
*117 sine_out_temp\[13\]
*118 sine_out_temp\[14\]
*119 sine_out_temp\[15\]
*120 sine_out_temp\[1\]
*121 sine_out_temp\[2\]
*122 sine_out_temp\[3\]
*123 sine_out_temp\[4\]
*124 sine_out_temp\[5\]
*125 sine_out_temp\[6\]
*126 sine_out_temp\[7\]
*127 sine_out_temp\[8\]
*128 sine_out_temp\[9\]
*129 tcout\[0\]
*130 tcout\[1\]
*131 tcout\[2\]
*132 tcout\[3\]
*133 tcout\[4\]
*134 tcout\[5\]
*135 tcout\[6\]
*136 tcout\[7\]
*137 ANTENNA_1
*138 ANTENNA_2
*139 ANTENNA_3
*140 ANTENNA_4
*141 ANTENNA__042__A
*142 ANTENNA__042__B
*143 ANTENNA__043__A
*144 ANTENNA__043__B
*145 ANTENNA__043__C
*146 ANTENNA__043__X
*147 ANTENNA__044__A1
*148 ANTENNA__044__A2
*149 ANTENNA__044__B1
*150 ANTENNA__045__A
*151 ANTENNA__046__B
*152 ANTENNA__047__B
*153 ANTENNA__048__C
*154 ANTENNA__050__C
*155 ANTENNA__051__A1_N
*156 ANTENNA__051__B2
*157 ANTENNA__052__A
*158 ANTENNA__052__B
*159 ANTENNA__053__A1
*160 ANTENNA__053__B1
*161 ANTENNA__065__A
*162 ANTENNA__065__Y
*163 ANTENNA__066__A
*164 ANTENNA__067__A
*165 ANTENNA__068__A
*166 ANTENNA__069__A
*167 ANTENNA__070__A
*168 ANTENNA__071__A
*169 ANTENNA__072__A
*170 ANTENNA__079__CLK
*171 ANTENNA__080__CLK
*172 ANTENNA__081__CLK
*173 ANTENNA__082__CLK
*174 ANTENNA__083__CLK
*175 ANTENNA__084__CLK
*176 ANTENNA__085__CLK
*177 ANTENNA__086__CLK
*178 ANTENNA__087__CLK
*179 ANTENNA__088__CLK
*180 ANTENNA__089__CLK
*181 ANTENNA__089__Q
*182 ANTENNA__089__RESET_B
*183 ANTENNA__090__CLK
*184 ANTENNA__090__Q
*185 ANTENNA__091__CLK
*186 ANTENNA__091__Q
*187 ANTENNA__092__CLK
*188 ANTENNA__093__CLK
*189 ANTENNA__094__CLK
*190 ANTENNA__094__Q
*191 ANTENNA__095__CLK
*192 ANTENNA__095__Q
*193 ANTENNA__096__CLK
*194 ANTENNA__096__Q
*195 ANTENNA__097__CLK
*196 ANTENNA__098__CLK
*197 ANTENNA__099__CLK
*198 ANTENNA__100__CLK
*199 ANTENNA__101__CLK
*200 ANTENNA__102__CLK
*201 ANTENNA_clkbuf_0_clk_A
*202 ANTENNA_clkbuf_0_clk_X
*203 ANTENNA_clkbuf_1_0__f_clk_A
*204 ANTENNA_clkbuf_1_0__f_clk_X
*205 ANTENNA_clkbuf_1_1__f_clk_A
*206 ANTENNA_clkbuf_1_1__f_clk_X
*207 ANTENNA_clkload0_A
*208 ANTENNA_fanout18_A
*209 ANTENNA_fanout19_A
*210 ANTENNA_fanout20_X
*211 ANTENNA_hold1_A
*212 ANTENNA_hold3_A
*213 ANTENNA_input1_A
*214 ANTENNA_mem_i_addr0\[0\]
*215 ANTENNA_mem_i_addr0\[1\]
*216 ANTENNA_mem_i_addr0\[2\]
*217 ANTENNA_mem_i_addr0\[3\]
*218 ANTENNA_mem_i_addr0\[4\]
*219 ANTENNA_mem_i_addr0\[5\]
*220 ANTENNA_mem_i_addr0\[6\]
*221 ANTENNA_mem_i_addr0\[7\]
*222 ANTENNA_mem_i_addr1\[0\]
*223 ANTENNA_mem_i_addr1\[1\]
*224 ANTENNA_mem_i_addr1\[2\]
*225 ANTENNA_mem_i_addr1\[5\]
*226 ANTENNA_mem_i_addr1\[6\]
*227 ANTENNA_mem_i_addr1\[7\]
*228 ANTENNA_mem_i_clk0
*229 ANTENNA_mem_i_clk1
*230 ANTENNA_mem_i_csb0
*231 ANTENNA_mem_i_din0\[0\]
*232 ANTENNA_mem_i_din0\[10\]
*233 ANTENNA_mem_i_din0\[11\]
*234 ANTENNA_mem_i_din0\[12\]
*235 ANTENNA_mem_i_din0\[13\]
*236 ANTENNA_mem_i_din0\[14\]
*237 ANTENNA_mem_i_din0\[15\]
*238 ANTENNA_mem_i_din0\[1\]
*239 ANTENNA_mem_i_din0\[2\]
*240 ANTENNA_mem_i_din0\[3\]
*241 ANTENNA_mem_i_din0\[4\]
*242 ANTENNA_mem_i_din0\[5\]
*243 ANTENNA_mem_i_din0\[6\]
*244 ANTENNA_mem_i_din0\[7\]
*245 ANTENNA_mem_i_din0\[8\]
*246 ANTENNA_mem_i_din0\[9\]
*247 FILLER_0_1005
*248 FILLER_0_1009
*249 FILLER_0_1021
*250 FILLER_0_1033
*251 FILLER_0_1037
*252 FILLER_0_1049
*253 FILLER_0_1061
*254 FILLER_0_1065
*255 FILLER_0_1077
*256 FILLER_0_1089
*257 FILLER_0_109
*258 FILLER_0_1093
*259 FILLER_0_1105
*260 FILLER_0_1117
*261 FILLER_0_1121
*262 FILLER_0_113
*263 FILLER_0_1133
*264 FILLER_0_1145
*265 FILLER_0_1149
*266 FILLER_0_1161
*267 FILLER_0_1173
*268 FILLER_0_1177
*269 FILLER_0_1189
*270 FILLER_0_125
*271 FILLER_0_137
*272 FILLER_0_141
*273 FILLER_0_15
*274 FILLER_0_153
*275 FILLER_0_165
*276 FILLER_0_169
*277 FILLER_0_181
*278 FILLER_0_193
*279 FILLER_0_197
*280 FILLER_0_209
*281 FILLER_0_221
*282 FILLER_0_225
*283 FILLER_0_237
*284 FILLER_0_249
*285 FILLER_0_253
*286 FILLER_0_265
*287 FILLER_0_27
*288 FILLER_0_277
*289 FILLER_0_281
*290 FILLER_0_29
*291 FILLER_0_293
*292 FILLER_0_3
*293 FILLER_0_305
*294 FILLER_0_309
*295 FILLER_0_321
*296 FILLER_0_333
*297 FILLER_0_337
*298 FILLER_0_349
*299 FILLER_0_361
*300 FILLER_0_365
*301 FILLER_0_377
*302 FILLER_0_389
*303 FILLER_0_393
*304 FILLER_0_405
*305 FILLER_0_41
*306 FILLER_0_417
*307 FILLER_0_421
*308 FILLER_0_433
*309 FILLER_0_445
*310 FILLER_0_449
*311 FILLER_0_461
*312 FILLER_0_473
*313 FILLER_0_477
*314 FILLER_0_489
*315 FILLER_0_501
*316 FILLER_0_505
*317 FILLER_0_517
*318 FILLER_0_529
*319 FILLER_0_53
*320 FILLER_0_533
*321 FILLER_0_545
*322 FILLER_0_557
*323 FILLER_0_561
*324 FILLER_0_57
*325 FILLER_0_573
*326 FILLER_0_585
*327 FILLER_0_589
*328 FILLER_0_601
*329 FILLER_0_613
*330 FILLER_0_617
*331 FILLER_0_629
*332 FILLER_0_641
*333 FILLER_0_645
*334 FILLER_0_657
*335 FILLER_0_669
*336 FILLER_0_673
*337 FILLER_0_685
*338 FILLER_0_69
*339 FILLER_0_697
*340 FILLER_0_701
*341 FILLER_0_713
*342 FILLER_0_725
*343 FILLER_0_729
*344 FILLER_0_741
*345 FILLER_0_753
*346 FILLER_0_757
*347 FILLER_0_769
*348 FILLER_0_781
*349 FILLER_0_785
*350 FILLER_0_797
*351 FILLER_0_809
*352 FILLER_0_81
*353 FILLER_0_813
*354 FILLER_0_825
*355 FILLER_0_837
*356 FILLER_0_841
*357 FILLER_0_85
*358 FILLER_0_853
*359 FILLER_0_865
*360 FILLER_0_869
*361 FILLER_0_881
*362 FILLER_0_893
*363 FILLER_0_897
*364 FILLER_0_909
*365 FILLER_0_921
*366 FILLER_0_925
*367 FILLER_0_937
*368 FILLER_0_949
*369 FILLER_0_953
*370 FILLER_0_965
*371 FILLER_0_97
*372 FILLER_0_977
*373 FILLER_0_981
*374 FILLER_0_993
*375 FILLER_100_1122
*376 FILLER_100_1133
*377 FILLER_100_1145
*378 FILLER_100_1148
*379 FILLER_100_1160
*380 FILLER_100_1172
*381 FILLER_100_1184
*382 FILLER_100_15
*383 FILLER_100_27
*384 FILLER_100_29
*385 FILLER_100_3
*386 FILLER_100_41
*387 FILLER_100_53
*388 FILLER_100_65
*389 FILLER_101_1149
*390 FILLER_101_1161
*391 FILLER_101_1173
*392 FILLER_101_1176
*393 FILLER_101_1188
*394 FILLER_101_15
*395 FILLER_101_27
*396 FILLER_101_3
*397 FILLER_101_39
*398 FILLER_101_51
*399 FILLER_101_55
*400 FILLER_101_57
*401 FILLER_101_69
*402 FILLER_102_1124
*403 FILLER_102_1136
*404 FILLER_102_1144
*405 FILLER_102_1148
*406 FILLER_102_1160
*407 FILLER_102_1172
*408 FILLER_102_1184
*409 FILLER_102_15
*410 FILLER_102_27
*411 FILLER_102_29
*412 FILLER_102_3
*413 FILLER_102_41
*414 FILLER_102_53
*415 FILLER_102_65
*416 FILLER_103_1122
*417 FILLER_103_1134
*418 FILLER_103_1146
*419 FILLER_103_1158
*420 FILLER_103_1170
*421 FILLER_103_1174
*422 FILLER_103_1176
*423 FILLER_103_1188
*424 FILLER_103_15
*425 FILLER_103_27
*426 FILLER_103_3
*427 FILLER_103_39
*428 FILLER_103_51
*429 FILLER_103_55
*430 FILLER_103_57
*431 FILLER_103_69
*432 FILLER_104_1122
*433 FILLER_104_1134
*434 FILLER_104_1146
*435 FILLER_104_1148
*436 FILLER_104_1160
*437 FILLER_104_1172
*438 FILLER_104_1184
*439 FILLER_104_15
*440 FILLER_104_27
*441 FILLER_104_29
*442 FILLER_104_3
*443 FILLER_104_41
*444 FILLER_104_53
*445 FILLER_104_65
*446 FILLER_105_1122
*447 FILLER_105_1134
*448 FILLER_105_1146
*449 FILLER_105_1158
*450 FILLER_105_1170
*451 FILLER_105_1174
*452 FILLER_105_1176
*453 FILLER_105_1188
*454 FILLER_105_15
*455 FILLER_105_27
*456 FILLER_105_3
*457 FILLER_105_39
*458 FILLER_105_51
*459 FILLER_105_55
*460 FILLER_105_57
*461 FILLER_105_69
*462 FILLER_106_1125
*463 FILLER_106_1137
*464 FILLER_106_1145
*465 FILLER_106_1148
*466 FILLER_106_1160
*467 FILLER_106_1172
*468 FILLER_106_1184
*469 FILLER_106_15
*470 FILLER_106_27
*471 FILLER_106_29
*472 FILLER_106_3
*473 FILLER_106_41
*474 FILLER_106_53
*475 FILLER_106_65
*476 FILLER_107_1122
*477 FILLER_107_1134
*478 FILLER_107_1146
*479 FILLER_107_1158
*480 FILLER_107_1170
*481 FILLER_107_1174
*482 FILLER_107_1176
*483 FILLER_107_1188
*484 FILLER_107_15
*485 FILLER_107_27
*486 FILLER_107_3
*487 FILLER_107_39
*488 FILLER_107_51
*489 FILLER_107_55
*490 FILLER_107_57
*491 FILLER_107_69
*492 FILLER_108_1122
*493 FILLER_108_1134
*494 FILLER_108_1146
*495 FILLER_108_1148
*496 FILLER_108_1160
*497 FILLER_108_1172
*498 FILLER_108_1184
*499 FILLER_108_15
*500 FILLER_108_27
*501 FILLER_108_29
*502 FILLER_108_3
*503 FILLER_108_41
*504 FILLER_108_53
*505 FILLER_108_65
*506 FILLER_109_1122
*507 FILLER_109_1134
*508 FILLER_109_1146
*509 FILLER_109_1158
*510 FILLER_109_1170
*511 FILLER_109_1174
*512 FILLER_109_1176
*513 FILLER_109_1188
*514 FILLER_109_15
*515 FILLER_109_27
*516 FILLER_109_3
*517 FILLER_109_39
*518 FILLER_109_51
*519 FILLER_109_55
*520 FILLER_109_57
*521 FILLER_109_69
*522 FILLER_10_1122
*523 FILLER_10_1134
*524 FILLER_10_1146
*525 FILLER_10_1148
*526 FILLER_10_1160
*527 FILLER_10_1172
*528 FILLER_10_1184
*529 FILLER_10_15
*530 FILLER_10_27
*531 FILLER_10_29
*532 FILLER_10_3
*533 FILLER_10_41
*534 FILLER_10_53
*535 FILLER_10_65
*536 FILLER_110_1122
*537 FILLER_110_1134
*538 FILLER_110_1146
*539 FILLER_110_1148
*540 FILLER_110_1160
*541 FILLER_110_1172
*542 FILLER_110_1184
*543 FILLER_110_15
*544 FILLER_110_27
*545 FILLER_110_29
*546 FILLER_110_3
*547 FILLER_110_41
*548 FILLER_110_53
*549 FILLER_110_65
*550 FILLER_111_1122
*551 FILLER_111_1134
*552 FILLER_111_1146
*553 FILLER_111_1158
*554 FILLER_111_1170
*555 FILLER_111_1174
*556 FILLER_111_1176
*557 FILLER_111_1188
*558 FILLER_111_15
*559 FILLER_111_27
*560 FILLER_111_3
*561 FILLER_111_39
*562 FILLER_111_51
*563 FILLER_111_55
*564 FILLER_111_57
*565 FILLER_111_69
*566 FILLER_112_1122
*567 FILLER_112_1134
*568 FILLER_112_1146
*569 FILLER_112_1148
*570 FILLER_112_1160
*571 FILLER_112_1172
*572 FILLER_112_1184
*573 FILLER_112_15
*574 FILLER_112_27
*575 FILLER_112_29
*576 FILLER_112_3
*577 FILLER_112_41
*578 FILLER_112_53
*579 FILLER_112_65
*580 FILLER_113_1122
*581 FILLER_113_1134
*582 FILLER_113_1146
*583 FILLER_113_1158
*584 FILLER_113_1170
*585 FILLER_113_1174
*586 FILLER_113_1176
*587 FILLER_113_1188
*588 FILLER_113_15
*589 FILLER_113_27
*590 FILLER_113_3
*591 FILLER_113_39
*592 FILLER_113_51
*593 FILLER_113_55
*594 FILLER_113_57
*595 FILLER_113_69
*596 FILLER_114_1122
*597 FILLER_114_1134
*598 FILLER_114_1146
*599 FILLER_114_1148
*600 FILLER_114_1160
*601 FILLER_114_1172
*602 FILLER_114_1184
*603 FILLER_114_15
*604 FILLER_114_27
*605 FILLER_114_29
*606 FILLER_114_3
*607 FILLER_114_41
*608 FILLER_114_53
*609 FILLER_114_65
*610 FILLER_115_1122
*611 FILLER_115_1134
*612 FILLER_115_1146
*613 FILLER_115_1158
*614 FILLER_115_1170
*615 FILLER_115_1174
*616 FILLER_115_1176
*617 FILLER_115_1188
*618 FILLER_115_15
*619 FILLER_115_27
*620 FILLER_115_3
*621 FILLER_115_39
*622 FILLER_115_51
*623 FILLER_115_55
*624 FILLER_115_57
*625 FILLER_115_69
*626 FILLER_116_1122
*627 FILLER_116_1134
*628 FILLER_116_1146
*629 FILLER_116_1148
*630 FILLER_116_1160
*631 FILLER_116_1172
*632 FILLER_116_1184
*633 FILLER_116_15
*634 FILLER_116_27
*635 FILLER_116_29
*636 FILLER_116_3
*637 FILLER_116_41
*638 FILLER_116_53
*639 FILLER_116_65
*640 FILLER_117_1006
*641 FILLER_117_1009
*642 FILLER_117_1021
*643 FILLER_117_1029
*644 FILLER_117_1032
*645 FILLER_117_1037
*646 FILLER_117_1049
*647 FILLER_117_1061
*648 FILLER_117_1065
*649 FILLER_117_1077
*650 FILLER_117_1089
*651 FILLER_117_109
*652 FILLER_117_1093
*653 FILLER_117_1105
*654 FILLER_117_1117
*655 FILLER_117_1121
*656 FILLER_117_113
*657 FILLER_117_1133
*658 FILLER_117_1145
*659 FILLER_117_1149
*660 FILLER_117_1161
*661 FILLER_117_1173
*662 FILLER_117_1177
*663 FILLER_117_1189
*664 FILLER_117_125
*665 FILLER_117_137
*666 FILLER_117_141
*667 FILLER_117_15
*668 FILLER_117_153
*669 FILLER_117_165
*670 FILLER_117_169
*671 FILLER_117_181
*672 FILLER_117_193
*673 FILLER_117_197
*674 FILLER_117_209
*675 FILLER_117_221
*676 FILLER_117_225
*677 FILLER_117_237
*678 FILLER_117_249
*679 FILLER_117_253
*680 FILLER_117_265
*681 FILLER_117_27
*682 FILLER_117_277
*683 FILLER_117_281
*684 FILLER_117_29
*685 FILLER_117_293
*686 FILLER_117_3
*687 FILLER_117_305
*688 FILLER_117_309
*689 FILLER_117_321
*690 FILLER_117_333
*691 FILLER_117_337
*692 FILLER_117_349
*693 FILLER_117_361
*694 FILLER_117_365
*695 FILLER_117_377
*696 FILLER_117_389
*697 FILLER_117_393
*698 FILLER_117_405
*699 FILLER_117_41
*700 FILLER_117_417
*701 FILLER_117_421
*702 FILLER_117_433
*703 FILLER_117_445
*704 FILLER_117_449
*705 FILLER_117_461
*706 FILLER_117_473
*707 FILLER_117_477
*708 FILLER_117_489
*709 FILLER_117_501
*710 FILLER_117_505
*711 FILLER_117_513
*712 FILLER_117_519
*713 FILLER_117_53
*714 FILLER_117_531
*715 FILLER_117_533
*716 FILLER_117_539
*717 FILLER_117_551
*718 FILLER_117_561
*719 FILLER_117_57
*720 FILLER_117_573
*721 FILLER_117_577
*722 FILLER_117_585
*723 FILLER_117_589
*724 FILLER_117_595
*725 FILLER_117_624
*726 FILLER_117_631
*727 FILLER_117_643
*728 FILLER_117_645
*729 FILLER_117_651
*730 FILLER_117_680
*731 FILLER_117_69
*732 FILLER_117_697
*733 FILLER_117_701
*734 FILLER_117_710
*735 FILLER_117_722
*736 FILLER_117_729
*737 FILLER_117_741
*738 FILLER_117_746
*739 FILLER_117_754
*740 FILLER_117_757
*741 FILLER_117_766
*742 FILLER_117_778
*743 FILLER_117_788
*744 FILLER_117_800
*745 FILLER_117_81
*746 FILLER_117_818
*747 FILLER_117_830
*748 FILLER_117_838
*749 FILLER_117_841
*750 FILLER_117_85
*751 FILLER_117_853
*752 FILLER_117_865
*753 FILLER_117_869
*754 FILLER_117_881
*755 FILLER_117_893
*756 FILLER_117_897
*757 FILLER_117_909
*758 FILLER_117_921
*759 FILLER_117_927
*760 FILLER_117_935
*761 FILLER_117_939
*762 FILLER_117_951
*763 FILLER_117_953
*764 FILLER_117_965
*765 FILLER_117_97
*766 FILLER_117_977
*767 FILLER_117_981
*768 FILLER_117_994
*769 FILLER_118_1005
*770 FILLER_118_1017
*771 FILLER_118_1029
*772 FILLER_118_1035
*773 FILLER_118_1037
*774 FILLER_118_1049
*775 FILLER_118_1061
*776 FILLER_118_1073
*777 FILLER_118_1085
*778 FILLER_118_109
*779 FILLER_118_1091
*780 FILLER_118_1093
*781 FILLER_118_1105
*782 FILLER_118_1117
*783 FILLER_118_1129
*784 FILLER_118_1141
*785 FILLER_118_1147
*786 FILLER_118_1149
*787 FILLER_118_1161
*788 FILLER_118_1173
*789 FILLER_118_1185
*790 FILLER_118_1189
*791 FILLER_118_121
*792 FILLER_118_133
*793 FILLER_118_139
*794 FILLER_118_141
*795 FILLER_118_15
*796 FILLER_118_153
*797 FILLER_118_165
*798 FILLER_118_177
*799 FILLER_118_189
*800 FILLER_118_195
*801 FILLER_118_197
*802 FILLER_118_209
*803 FILLER_118_221
*804 FILLER_118_233
*805 FILLER_118_245
*806 FILLER_118_251
*807 FILLER_118_253
*808 FILLER_118_265
*809 FILLER_118_27
*810 FILLER_118_277
*811 FILLER_118_289
*812 FILLER_118_29
*813 FILLER_118_3
*814 FILLER_118_301
*815 FILLER_118_307
*816 FILLER_118_309
*817 FILLER_118_321
*818 FILLER_118_333
*819 FILLER_118_345
*820 FILLER_118_357
*821 FILLER_118_363
*822 FILLER_118_365
*823 FILLER_118_377
*824 FILLER_118_389
*825 FILLER_118_401
*826 FILLER_118_41
*827 FILLER_118_413
*828 FILLER_118_419
*829 FILLER_118_421
*830 FILLER_118_433
*831 FILLER_118_445
*832 FILLER_118_457
*833 FILLER_118_469
*834 FILLER_118_475
*835 FILLER_118_477
*836 FILLER_118_489
*837 FILLER_118_501
*838 FILLER_118_507
*839 FILLER_118_519
*840 FILLER_118_529
*841 FILLER_118_53
*842 FILLER_118_533
*843 FILLER_118_545
*844 FILLER_118_571
*845 FILLER_118_583
*846 FILLER_118_587
*847 FILLER_118_589
*848 FILLER_118_592
*849 FILLER_118_604
*850 FILLER_118_616
*851 FILLER_118_628
*852 FILLER_118_634
*853 FILLER_118_637
*854 FILLER_118_643
*855 FILLER_118_645
*856 FILLER_118_65
*857 FILLER_118_675
*858 FILLER_118_687
*859 FILLER_118_699
*860 FILLER_118_703
*861 FILLER_118_715
*862 FILLER_118_727
*863 FILLER_118_739
*864 FILLER_118_749
*865 FILLER_118_755
*866 FILLER_118_757
*867 FILLER_118_765
*868 FILLER_118_77
*869 FILLER_118_790
*870 FILLER_118_802
*871 FILLER_118_810
*872 FILLER_118_813
*873 FILLER_118_825
*874 FILLER_118_83
*875 FILLER_118_837
*876 FILLER_118_849
*877 FILLER_118_85
*878 FILLER_118_861
*879 FILLER_118_867
*880 FILLER_118_869
*881 FILLER_118_881
*882 FILLER_118_893
*883 FILLER_118_905
*884 FILLER_118_917
*885 FILLER_118_923
*886 FILLER_118_925
*887 FILLER_118_937
*888 FILLER_118_949
*889 FILLER_118_961
*890 FILLER_118_97
*891 FILLER_118_973
*892 FILLER_118_979
*893 FILLER_118_981
*894 FILLER_118_993
*895 FILLER_119_1001
*896 FILLER_119_1007
*897 FILLER_119_1009
*898 FILLER_119_1021
*899 FILLER_119_1033
*900 FILLER_119_1045
*901 FILLER_119_105
*902 FILLER_119_1057
*903 FILLER_119_1063
*904 FILLER_119_1065
*905 FILLER_119_1077
*906 FILLER_119_1089
*907 FILLER_119_1101
*908 FILLER_119_111
*909 FILLER_119_1113
*910 FILLER_119_1119
*911 FILLER_119_1121
*912 FILLER_119_113
*913 FILLER_119_1133
*914 FILLER_119_1145
*915 FILLER_119_1157
*916 FILLER_119_1169
*917 FILLER_119_1175
*918 FILLER_119_1177
*919 FILLER_119_1189
*920 FILLER_119_125
*921 FILLER_119_137
*922 FILLER_119_149
*923 FILLER_119_15
*924 FILLER_119_161
*925 FILLER_119_167
*926 FILLER_119_169
*927 FILLER_119_181
*928 FILLER_119_193
*929 FILLER_119_205
*930 FILLER_119_217
*931 FILLER_119_223
*932 FILLER_119_225
*933 FILLER_119_237
*934 FILLER_119_249
*935 FILLER_119_261
*936 FILLER_119_27
*937 FILLER_119_273
*938 FILLER_119_279
*939 FILLER_119_281
*940 FILLER_119_293
*941 FILLER_119_3
*942 FILLER_119_305
*943 FILLER_119_317
*944 FILLER_119_329
*945 FILLER_119_335
*946 FILLER_119_337
*947 FILLER_119_349
*948 FILLER_119_361
*949 FILLER_119_373
*950 FILLER_119_385
*951 FILLER_119_39
*952 FILLER_119_391
*953 FILLER_119_393
*954 FILLER_119_405
*955 FILLER_119_417
*956 FILLER_119_429
*957 FILLER_119_441
*958 FILLER_119_447
*959 FILLER_119_449
*960 FILLER_119_503
*961 FILLER_119_51
*962 FILLER_119_527
*963 FILLER_119_55
*964 FILLER_119_552
*965 FILLER_119_561
*966 FILLER_119_569
*967 FILLER_119_57
*968 FILLER_119_612
*969 FILLER_119_657
*970 FILLER_119_669
*971 FILLER_119_673
*972 FILLER_119_677
*973 FILLER_119_69
*974 FILLER_119_700
*975 FILLER_119_721
*976 FILLER_119_725
*977 FILLER_119_769
*978 FILLER_119_781
*979 FILLER_119_785
*980 FILLER_119_793
*981 FILLER_119_81
*982 FILLER_119_818
*983 FILLER_119_830
*984 FILLER_119_838
*985 FILLER_119_841
*986 FILLER_119_853
*987 FILLER_119_865
*988 FILLER_119_877
*989 FILLER_119_889
*990 FILLER_119_895
*991 FILLER_119_897
*992 FILLER_119_909
*993 FILLER_119_921
*994 FILLER_119_93
*995 FILLER_119_933
*996 FILLER_119_945
*997 FILLER_119_951
*998 FILLER_119_953
*999 FILLER_119_965
*1000 FILLER_119_977
*1001 FILLER_119_989
*1002 FILLER_11_1122
*1003 FILLER_11_1134
*1004 FILLER_11_1146
*1005 FILLER_11_1158
*1006 FILLER_11_1170
*1007 FILLER_11_1174
*1008 FILLER_11_1176
*1009 FILLER_11_1188
*1010 FILLER_11_15
*1011 FILLER_11_27
*1012 FILLER_11_3
*1013 FILLER_11_39
*1014 FILLER_11_51
*1015 FILLER_11_55
*1016 FILLER_11_57
*1017 FILLER_11_69
*1018 FILLER_120_1005
*1019 FILLER_120_1017
*1020 FILLER_120_1029
*1021 FILLER_120_1035
*1022 FILLER_120_1037
*1023 FILLER_120_1049
*1024 FILLER_120_1061
*1025 FILLER_120_1073
*1026 FILLER_120_1085
*1027 FILLER_120_109
*1028 FILLER_120_1091
*1029 FILLER_120_1093
*1030 FILLER_120_1105
*1031 FILLER_120_1117
*1032 FILLER_120_1129
*1033 FILLER_120_1141
*1034 FILLER_120_1147
*1035 FILLER_120_1149
*1036 FILLER_120_1161
*1037 FILLER_120_1173
*1038 FILLER_120_1185
*1039 FILLER_120_1189
*1040 FILLER_120_121
*1041 FILLER_120_133
*1042 FILLER_120_139
*1043 FILLER_120_141
*1044 FILLER_120_15
*1045 FILLER_120_153
*1046 FILLER_120_165
*1047 FILLER_120_177
*1048 FILLER_120_189
*1049 FILLER_120_195
*1050 FILLER_120_197
*1051 FILLER_120_209
*1052 FILLER_120_221
*1053 FILLER_120_233
*1054 FILLER_120_245
*1055 FILLER_120_251
*1056 FILLER_120_253
*1057 FILLER_120_265
*1058 FILLER_120_27
*1059 FILLER_120_277
*1060 FILLER_120_289
*1061 FILLER_120_29
*1062 FILLER_120_3
*1063 FILLER_120_301
*1064 FILLER_120_307
*1065 FILLER_120_309
*1066 FILLER_120_321
*1067 FILLER_120_333
*1068 FILLER_120_345
*1069 FILLER_120_357
*1070 FILLER_120_363
*1071 FILLER_120_365
*1072 FILLER_120_377
*1073 FILLER_120_389
*1074 FILLER_120_401
*1075 FILLER_120_41
*1076 FILLER_120_413
*1077 FILLER_120_419
*1078 FILLER_120_421
*1079 FILLER_120_433
*1080 FILLER_120_445
*1081 FILLER_120_457
*1082 FILLER_120_469
*1083 FILLER_120_475
*1084 FILLER_120_477
*1085 FILLER_120_489
*1086 FILLER_120_501
*1087 FILLER_120_513
*1088 FILLER_120_525
*1089 FILLER_120_53
*1090 FILLER_120_531
*1091 FILLER_120_533
*1092 FILLER_120_545
*1093 FILLER_120_557
*1094 FILLER_120_569
*1095 FILLER_120_581
*1096 FILLER_120_587
*1097 FILLER_120_589
*1098 FILLER_120_601
*1099 FILLER_120_613
*1100 FILLER_120_625
*1101 FILLER_120_637
*1102 FILLER_120_643
*1103 FILLER_120_645
*1104 FILLER_120_65
*1105 FILLER_120_657
*1106 FILLER_120_669
*1107 FILLER_120_681
*1108 FILLER_120_693
*1109 FILLER_120_699
*1110 FILLER_120_701
*1111 FILLER_120_713
*1112 FILLER_120_725
*1113 FILLER_120_737
*1114 FILLER_120_749
*1115 FILLER_120_755
*1116 FILLER_120_757
*1117 FILLER_120_769
*1118 FILLER_120_77
*1119 FILLER_120_781
*1120 FILLER_120_793
*1121 FILLER_120_805
*1122 FILLER_120_811
*1123 FILLER_120_813
*1124 FILLER_120_825
*1125 FILLER_120_83
*1126 FILLER_120_837
*1127 FILLER_120_849
*1128 FILLER_120_85
*1129 FILLER_120_861
*1130 FILLER_120_867
*1131 FILLER_120_869
*1132 FILLER_120_881
*1133 FILLER_120_893
*1134 FILLER_120_905
*1135 FILLER_120_917
*1136 FILLER_120_923
*1137 FILLER_120_925
*1138 FILLER_120_937
*1139 FILLER_120_949
*1140 FILLER_120_961
*1141 FILLER_120_97
*1142 FILLER_120_973
*1143 FILLER_120_979
*1144 FILLER_120_981
*1145 FILLER_120_993
*1146 FILLER_121_1001
*1147 FILLER_121_1007
*1148 FILLER_121_1009
*1149 FILLER_121_1021
*1150 FILLER_121_1033
*1151 FILLER_121_1045
*1152 FILLER_121_105
*1153 FILLER_121_1057
*1154 FILLER_121_1063
*1155 FILLER_121_1065
*1156 FILLER_121_1077
*1157 FILLER_121_1089
*1158 FILLER_121_1101
*1159 FILLER_121_111
*1160 FILLER_121_1113
*1161 FILLER_121_1119
*1162 FILLER_121_1121
*1163 FILLER_121_113
*1164 FILLER_121_1133
*1165 FILLER_121_1145
*1166 FILLER_121_1157
*1167 FILLER_121_1169
*1168 FILLER_121_1175
*1169 FILLER_121_1177
*1170 FILLER_121_1189
*1171 FILLER_121_125
*1172 FILLER_121_137
*1173 FILLER_121_149
*1174 FILLER_121_15
*1175 FILLER_121_161
*1176 FILLER_121_167
*1177 FILLER_121_169
*1178 FILLER_121_181
*1179 FILLER_121_193
*1180 FILLER_121_205
*1181 FILLER_121_217
*1182 FILLER_121_223
*1183 FILLER_121_225
*1184 FILLER_121_237
*1185 FILLER_121_249
*1186 FILLER_121_261
*1187 FILLER_121_27
*1188 FILLER_121_273
*1189 FILLER_121_279
*1190 FILLER_121_281
*1191 FILLER_121_293
*1192 FILLER_121_3
*1193 FILLER_121_305
*1194 FILLER_121_317
*1195 FILLER_121_329
*1196 FILLER_121_335
*1197 FILLER_121_337
*1198 FILLER_121_349
*1199 FILLER_121_361
*1200 FILLER_121_373
*1201 FILLER_121_385
*1202 FILLER_121_39
*1203 FILLER_121_391
*1204 FILLER_121_393
*1205 FILLER_121_405
*1206 FILLER_121_417
*1207 FILLER_121_429
*1208 FILLER_121_441
*1209 FILLER_121_447
*1210 FILLER_121_449
*1211 FILLER_121_461
*1212 FILLER_121_473
*1213 FILLER_121_485
*1214 FILLER_121_497
*1215 FILLER_121_503
*1216 FILLER_121_505
*1217 FILLER_121_51
*1218 FILLER_121_517
*1219 FILLER_121_529
*1220 FILLER_121_541
*1221 FILLER_121_55
*1222 FILLER_121_553
*1223 FILLER_121_559
*1224 FILLER_121_561
*1225 FILLER_121_57
*1226 FILLER_121_573
*1227 FILLER_121_585
*1228 FILLER_121_597
*1229 FILLER_121_609
*1230 FILLER_121_615
*1231 FILLER_121_617
*1232 FILLER_121_629
*1233 FILLER_121_641
*1234 FILLER_121_653
*1235 FILLER_121_665
*1236 FILLER_121_671
*1237 FILLER_121_673
*1238 FILLER_121_685
*1239 FILLER_121_69
*1240 FILLER_121_697
*1241 FILLER_121_709
*1242 FILLER_121_721
*1243 FILLER_121_727
*1244 FILLER_121_729
*1245 FILLER_121_741
*1246 FILLER_121_753
*1247 FILLER_121_765
*1248 FILLER_121_777
*1249 FILLER_121_783
*1250 FILLER_121_785
*1251 FILLER_121_797
*1252 FILLER_121_809
*1253 FILLER_121_81
*1254 FILLER_121_821
*1255 FILLER_121_833
*1256 FILLER_121_839
*1257 FILLER_121_841
*1258 FILLER_121_853
*1259 FILLER_121_865
*1260 FILLER_121_877
*1261 FILLER_121_889
*1262 FILLER_121_895
*1263 FILLER_121_897
*1264 FILLER_121_909
*1265 FILLER_121_921
*1266 FILLER_121_93
*1267 FILLER_121_933
*1268 FILLER_121_945
*1269 FILLER_121_951
*1270 FILLER_121_953
*1271 FILLER_121_965
*1272 FILLER_121_977
*1273 FILLER_121_989
*1274 FILLER_122_1005
*1275 FILLER_122_1017
*1276 FILLER_122_1029
*1277 FILLER_122_1035
*1278 FILLER_122_1037
*1279 FILLER_122_1049
*1280 FILLER_122_1061
*1281 FILLER_122_1073
*1282 FILLER_122_1085
*1283 FILLER_122_109
*1284 FILLER_122_1091
*1285 FILLER_122_1093
*1286 FILLER_122_1105
*1287 FILLER_122_1117
*1288 FILLER_122_1129
*1289 FILLER_122_1141
*1290 FILLER_122_1147
*1291 FILLER_122_1149
*1292 FILLER_122_1161
*1293 FILLER_122_1173
*1294 FILLER_122_1185
*1295 FILLER_122_1189
*1296 FILLER_122_121
*1297 FILLER_122_133
*1298 FILLER_122_139
*1299 FILLER_122_141
*1300 FILLER_122_15
*1301 FILLER_122_153
*1302 FILLER_122_165
*1303 FILLER_122_177
*1304 FILLER_122_189
*1305 FILLER_122_195
*1306 FILLER_122_197
*1307 FILLER_122_209
*1308 FILLER_122_221
*1309 FILLER_122_233
*1310 FILLER_122_245
*1311 FILLER_122_251
*1312 FILLER_122_253
*1313 FILLER_122_265
*1314 FILLER_122_27
*1315 FILLER_122_277
*1316 FILLER_122_289
*1317 FILLER_122_29
*1318 FILLER_122_3
*1319 FILLER_122_301
*1320 FILLER_122_307
*1321 FILLER_122_309
*1322 FILLER_122_321
*1323 FILLER_122_333
*1324 FILLER_122_345
*1325 FILLER_122_357
*1326 FILLER_122_363
*1327 FILLER_122_365
*1328 FILLER_122_377
*1329 FILLER_122_389
*1330 FILLER_122_401
*1331 FILLER_122_41
*1332 FILLER_122_413
*1333 FILLER_122_419
*1334 FILLER_122_421
*1335 FILLER_122_433
*1336 FILLER_122_445
*1337 FILLER_122_457
*1338 FILLER_122_469
*1339 FILLER_122_475
*1340 FILLER_122_477
*1341 FILLER_122_489
*1342 FILLER_122_501
*1343 FILLER_122_513
*1344 FILLER_122_525
*1345 FILLER_122_53
*1346 FILLER_122_531
*1347 FILLER_122_533
*1348 FILLER_122_545
*1349 FILLER_122_557
*1350 FILLER_122_569
*1351 FILLER_122_581
*1352 FILLER_122_587
*1353 FILLER_122_589
*1354 FILLER_122_601
*1355 FILLER_122_613
*1356 FILLER_122_625
*1357 FILLER_122_637
*1358 FILLER_122_643
*1359 FILLER_122_645
*1360 FILLER_122_65
*1361 FILLER_122_657
*1362 FILLER_122_669
*1363 FILLER_122_681
*1364 FILLER_122_693
*1365 FILLER_122_699
*1366 FILLER_122_701
*1367 FILLER_122_713
*1368 FILLER_122_725
*1369 FILLER_122_737
*1370 FILLER_122_749
*1371 FILLER_122_755
*1372 FILLER_122_757
*1373 FILLER_122_769
*1374 FILLER_122_77
*1375 FILLER_122_781
*1376 FILLER_122_793
*1377 FILLER_122_805
*1378 FILLER_122_811
*1379 FILLER_122_813
*1380 FILLER_122_825
*1381 FILLER_122_83
*1382 FILLER_122_837
*1383 FILLER_122_849
*1384 FILLER_122_85
*1385 FILLER_122_861
*1386 FILLER_122_867
*1387 FILLER_122_869
*1388 FILLER_122_881
*1389 FILLER_122_893
*1390 FILLER_122_905
*1391 FILLER_122_917
*1392 FILLER_122_923
*1393 FILLER_122_925
*1394 FILLER_122_937
*1395 FILLER_122_949
*1396 FILLER_122_961
*1397 FILLER_122_97
*1398 FILLER_122_973
*1399 FILLER_122_979
*1400 FILLER_122_981
*1401 FILLER_122_993
*1402 FILLER_123_1001
*1403 FILLER_123_1007
*1404 FILLER_123_1009
*1405 FILLER_123_1021
*1406 FILLER_123_1033
*1407 FILLER_123_1045
*1408 FILLER_123_105
*1409 FILLER_123_1057
*1410 FILLER_123_1063
*1411 FILLER_123_1065
*1412 FILLER_123_1077
*1413 FILLER_123_1089
*1414 FILLER_123_1101
*1415 FILLER_123_111
*1416 FILLER_123_1113
*1417 FILLER_123_1119
*1418 FILLER_123_1121
*1419 FILLER_123_113
*1420 FILLER_123_1133
*1421 FILLER_123_1145
*1422 FILLER_123_1157
*1423 FILLER_123_1169
*1424 FILLER_123_1175
*1425 FILLER_123_1177
*1426 FILLER_123_1189
*1427 FILLER_123_125
*1428 FILLER_123_137
*1429 FILLER_123_149
*1430 FILLER_123_15
*1431 FILLER_123_161
*1432 FILLER_123_167
*1433 FILLER_123_169
*1434 FILLER_123_181
*1435 FILLER_123_193
*1436 FILLER_123_205
*1437 FILLER_123_217
*1438 FILLER_123_223
*1439 FILLER_123_225
*1440 FILLER_123_237
*1441 FILLER_123_249
*1442 FILLER_123_261
*1443 FILLER_123_27
*1444 FILLER_123_273
*1445 FILLER_123_279
*1446 FILLER_123_281
*1447 FILLER_123_293
*1448 FILLER_123_3
*1449 FILLER_123_305
*1450 FILLER_123_317
*1451 FILLER_123_329
*1452 FILLER_123_335
*1453 FILLER_123_337
*1454 FILLER_123_349
*1455 FILLER_123_361
*1456 FILLER_123_373
*1457 FILLER_123_385
*1458 FILLER_123_39
*1459 FILLER_123_391
*1460 FILLER_123_393
*1461 FILLER_123_405
*1462 FILLER_123_417
*1463 FILLER_123_429
*1464 FILLER_123_441
*1465 FILLER_123_447
*1466 FILLER_123_449
*1467 FILLER_123_461
*1468 FILLER_123_473
*1469 FILLER_123_485
*1470 FILLER_123_497
*1471 FILLER_123_503
*1472 FILLER_123_505
*1473 FILLER_123_51
*1474 FILLER_123_517
*1475 FILLER_123_529
*1476 FILLER_123_541
*1477 FILLER_123_55
*1478 FILLER_123_553
*1479 FILLER_123_559
*1480 FILLER_123_561
*1481 FILLER_123_57
*1482 FILLER_123_573
*1483 FILLER_123_585
*1484 FILLER_123_597
*1485 FILLER_123_609
*1486 FILLER_123_615
*1487 FILLER_123_617
*1488 FILLER_123_629
*1489 FILLER_123_641
*1490 FILLER_123_653