*SPEF "ieee 1481-1999"
*DESIGN "counter"
*DATE "16:04:51 Thursday March 06, 2025"
*VENDOR "The OpenROAD Project"
*PROGRAM "OpenROAD"
*VERSION "edf00dff99f6c40d67a30c0e22a8191c5d2ed9d6"
*DESIGN_FLOW "NAME_SCOPE LOCAL" "PIN_CAP NONE"
*DIVIDER /
*DELIMITER :
*BUS_DELIMITER []
*T_UNIT 1 NS
*C_UNIT 1 PF
*R_UNIT 1 OHM
*L_UNIT 1 HENRY

*NAME_MAP
*1 addr00[0]
*2 addr00[1]
*3 addr00[2]
*4 addr00[3]
*5 addr00[4]
*6 addr00[5]
*7 addr00[6]
*8 addr00[7]
*9 addr01[0]
*10 addr01[1]
*11 addr01[2]
*12 addr01[3]
*13 addr01[4]
*14 addr01[5]
*15 addr01[6]
*16 addr01[7]
*17 clk
*18 csb00
*19 csb01
*20 denum[0]
*21 denum[1]
*22 denum[2]
*23 denum[3]
*24 din00[0]
*25 din00[10]
*26 din00[11]
*27 din00[12]
*28 din00[13]
*29 din00[14]
*30 din00[15]
*31 din00[1]
*32 din00[2]
*33 din00[3]
*34 din00[4]
*35 din00[5]
*36 din00[6]
*37 din00[7]
*38 din00[8]
*39 din00[9]
*40 din01[0]
*41 din01[10]
*42 din01[11]
*43 din01[12]
*44 din01[13]
*45 din01[14]
*46 din01[15]
*47 din01[1]
*48 din01[2]
*49 din01[3]
*50 din01[4]
*51 din01[5]
*52 din01[6]
*53 din01[7]
*54 din01[8]
*55 din01[9]
*56 num[0]
*57 num[1]
*58 num[2]
*59 num[3]
*60 rst
*61 sine_out[0]
*62 sine_out[10]
*63 sine_out[11]
*64 sine_out[12]
*65 sine_out[13]
*66 sine_out[14]
*67 sine_out[15]
*68 sine_out[1]
*69 sine_out[2]
*70 sine_out[3]
*71 sine_out[4]
*72 sine_out[5]
*73 sine_out[6]
*74 sine_out[7]
*75 sine_out[8]
*76 sine_out[9]
*79 _000_
*80 _001_
*81 _002_
*82 _003_
*83 _004_
*84 _005_
*85 _006_
*86 _007_
*87 _008_
*88 _009_
*89 _010_
*90 _011_
*91 _012_
*92 _013_
*93 _014_
*94 _015_
*95 _016_
*96 _017_
*97 _018_
*98 _019_
*99 _020_
*100 _021_
*101 _022_
*102 _023_
*103 _024_
*104 _025_
*105 _026_
*106 _027_
*107 _028_
*108 _029_
*109 _030_
*110 _031_
*111 _032_
*112 _033_
*113 _034_
*114 _035_
*115 _036_
*116 _037_
*117 _038_
*118 _039_
*119 _040_
*120 _041_
*121 _042_
*122 _043_
*123 _044_
*124 _045_
*125 _046_
*126 _047_
*127 _048_
*128 _049_
*129 _050_
*130 _051_
*131 _052_
*132 _053_
*133 _054_
*134 _055_
*135 _056_
*136 _057_
*137 _058_
*138 _059_
*139 _060_
*140 _061_
*141 _062_
*142 _063_
*143 _064_
*144 _065_
*145 _066_
*146 _067_
*147 _068_
*148 _069_
*149 _070_
*150 _071_
*151 _072_
*152 _073_
*153 _074_
*154 _075_
*155 _076_
*156 _077_
*157 _078_
*158 _079_
*159 _080_
*160 _081_
*161 _082_
*162 _083_
*163 _084_
*164 _085_
*165 _086_
*166 _087_
*167 _088_
*168 _089_
*169 _090_
*170 _091_
*171 _092_
*172 _093_
*173 _094_
*174 _095_
*175 _096_
*176 _097_
*177 _098_
*178 _099_
*179 _100_
*180 _101_
*181 _102_
*182 _103_
*183 _104_
*184 _105_
*185 _106_
*186 _107_
*187 _108_
*188 _109_
*189 _110_
*190 _111_
*191 _112_
*192 _113_
*193 _114_
*194 _115_
*195 _116_
*196 _117_
*197 _118_
*198 _119_
*199 _120_
*200 _121_
*201 _122_
*202 _123_
*203 _124_
*204 _125_
*205 _126_
*206 _127_
*207 _128_
*208 _129_
*209 _130_
*210 _131_
*211 _132_
*212 _133_
*213 _134_
*214 _135_
*215 _136_
*216 _137_
*217 _138_
*218 _139_
*219 _140_
*220 _141_
*221 _142_
*222 _143_
*223 _144_
*224 _145_
*225 _146_
*226 _147_
*227 _148_
*228 _149_
*229 _150_
*230 _151_
*231 _152_
*232 _153_
*233 _154_
*234 _155_
*235 _156_
*236 _157_
*237 _158_
*238 _159_
*239 _160_
*240 _161_
*241 _162_
*242 _163_
*243 _164_
*244 _165_
*245 _166_
*246 _167_
*247 _168_
*248 _169_
*249 _170_
*250 _171_
*251 _172_
*252 _173_
*253 _174_
*254 _175_
*255 _176_
*256 _177_
*257 _178_
*258 _179_
*259 _180_
*260 _181_
*261 _182_
*262 _183_
*263 _184_
*264 _185_
*265 _186_
*266 _187_
*267 _188_
*268 _189_
*269 _190_
*270 _191_
*271 _192_
*272 _193_
*273 _194_
*274 _195_
*275 _196_
*276 _197_
*277 _198_
*278 _199_
*279 _200_
*280 _201_
*281 _202_
*282 _203_
*283 _204_
*284 _205_
*285 _206_
*286 _207_
*287 _208_
*288 _209_
*289 _210_
*290 _211_
*291 _212_
*292 _213_
*293 _214_
*294 _215_
*295 _216_
*296 _217_
*297 _218_
*298 _219_
*299 _220_
*300 _221_
*301 _222_
*302 _223_
*303 _224_
*304 _225_
*305 _226_
*306 _227_
*307 _228_
*308 _229_
*309 _230_
*310 _231_
*311 _232_
*312 _233_
*313 _234_
*314 _235_
*315 _236_
*316 _237_
*317 _238_
*318 _239_
*319 _240_
*320 _241_
*321 _242_
*322 _243_
*323 _244_
*324 _245_
*325 _246_
*326 _247_
*327 _248_
*328 _249_
*329 _250_
*330 _251_
*331 _252_
*332 _253_
*333 _254_
*334 _255_
*335 _256_
*336 _257_
*337 _258_
*338 _259_
*339 _260_
*340 _261_
*341 _262_
*342 _263_
*343 _264_
*344 _265_
*345 _266_
*346 _267_
*347 _268_
*348 _269_
*349 _270_
*350 _271_
*351 _272_
*352 _273_
*353 _274_
*354 _275_
*355 _276_
*356 _277_
*357 _278_
*358 _279_
*359 _280_
*360 _281_
*361 _282_
*362 _283_
*363 _284_
*364 _285_
*365 _286_
*366 _287_
*367 _288_
*368 _289_
*369 _290_
*370 clknet_0_clk
*371 clknet_2_0_0_clk
*372 clknet_2_1_0_clk
*373 clknet_2_2_0_clk
*374 clknet_2_3_0_clk
*375 clknet_3_0__leaf_clk
*376 clknet_3_1__leaf_clk
*377 clknet_3_2__leaf_clk
*378 clknet_3_3__leaf_clk
*379 clknet_3_4__leaf_clk
*380 clknet_3_5__leaf_clk
*381 clknet_3_6__leaf_clk
*382 clknet_3_7__leaf_clk
*383 net1
*384 net10
*385 net100
*386 net101
*387 net102
*388 net103
*389 net104
*390 net105
*391 net106
*392 net107
*393 net108
*394 net109
*395 net11
*396 net110
*397 net111
*398 net112
*399 net113
*400 net114
*401 net115
*402 net116
*403 net117
*404 net118
*405 net12
*406 net13
*407 net14
*408 net15
*409 net16
*410 net17
*411 net18
*412 net19
*413 net2
*414 net20
*415 net21
*416 net22
*417 net23
*418 net24
*419 net25
*420 net26
*421 net27
*422 net28
*423 net29
*424 net3
*425 net30
*426 net31
*427 net32
*428 net33
*429 net34
*430 net35
*431 net36
*432 net37
*433 net38
*434 net39
*435 net4
*436 net40
*437 net41
*438 net42
*439 net43
*440 net44
*441 net45
*442 net46
*443 net47
*444 net48
*445 net49
*446 net5
*447 net50
*448 net51
*449 net52
*450 net53
*451 net54
*452 net55
*453 net56
*454 net57
*455 net58
*456 net59
*457 net6
*458 net60
*459 net61
*460 net62
*461 net63
*462 net64
*463 net65
*464 net66
*465 net67
*466 net68
*467 net69
*468 net7
*469 net70
*470 net71
*471 net72
*472 net73
*473 net74
*474 net75
*475 net76
*476 net77
*477 net78
*478 net79
*479 net8
*480 net80
*481 net81
*482 net82
*483 net83
*484 net84
*485 net85
*486 net86
*487 net87
*488 net88
*489 net89
*490 net9
*491 net90
*492 net91
*493 net92
*494 net93
*495 net94
*496 net95
*497 net96
*498 net97
*499 net98
*500 net99
*501 sine_out_reg0\[0\]
*502 sine_out_reg0\[10\]
*503 sine_out_reg0\[11\]
*504 sine_out_reg0\[12\]
*505 sine_out_reg0\[13\]
*506 sine_out_reg0\[14\]
*507 sine_out_reg0\[15\]
*508 sine_out_reg0\[1\]
*509 sine_out_reg0\[2\]
*510 sine_out_reg0\[3\]
*511 sine_out_reg0\[4\]
*512 sine_out_reg0\[5\]
*513 sine_out_reg0\[6\]
*514 sine_out_reg0\[7\]
*515 sine_out_reg0\[8\]
*516 sine_out_reg0\[9\]
*517 sine_out_reg1\[0\]
*518 sine_out_reg1\[10\]
*519 sine_out_reg1\[11\]
*520 sine_out_reg1\[12\]
*521 sine_out_reg1\[13\]
*522 sine_out_reg1\[14\]
*523 sine_out_reg1\[15\]
*524 sine_out_reg1\[1\]
*525 sine_out_reg1\[2\]
*526 sine_out_reg1\[3\]
*527 sine_out_reg1\[4\]
*528 sine_out_reg1\[5\]
*529 sine_out_reg1\[6\]
*530 sine_out_reg1\[7\]
*531 sine_out_reg1\[8\]
*532 sine_out_reg1\[9\]
*533 sine_out_temp0\[0\]
*534 sine_out_temp0\[10\]
*535 sine_out_temp0\[11\]
*536 sine_out_temp0\[12\]
*537 sine_out_temp0\[13\]
*538 sine_out_temp0\[14\]
*539 sine_out_temp0\[15\]
*540 sine_out_temp0\[1\]
*541 sine_out_temp0\[2\]
*542 sine_out_temp0\[3\]
*543 sine_out_temp0\[4\]
*544 sine_out_temp0\[5\]
*545 sine_out_temp0\[6\]
*546 sine_out_temp0\[7\]
*547 sine_out_temp0\[8\]
*548 sine_out_temp0\[9\]
*549 sine_out_temp1\[0\]
*550 sine_out_temp1\[10\]
*551 sine_out_temp1\[11\]
*552 sine_out_temp1\[12\]
*553 sine_out_temp1\[13\]
*554 sine_out_temp1\[14\]
*555 sine_out_temp1\[15\]
*556 sine_out_temp1\[1\]
*557 sine_out_temp1\[2\]
*558 sine_out_temp1\[3\]
*559 sine_out_temp1\[4\]
*560 sine_out_temp1\[5\]
*561 sine_out_temp1\[6\]
*562 sine_out_temp1\[7\]
*563 sine_out_temp1\[8\]
*564 sine_out_temp1\[9\]
*565 tcout\[0\]
*566 tcout\[1\]
*567 tcout\[2\]
*568 tcout\[3\]
*569 tcout\[4\]
*570 tcout\[5\]
*571 tcout\[6\]
*572 tcout\[7\]
*573 tcout\[8\]
*574 tcout_delay\[0\]
*575 tcout_delay\[1\]
*576 ANTENNA_1
*577 ANTENNA_10
*578 ANTENNA_11
*579 ANTENNA_12
*580 ANTENNA_13
*581 ANTENNA_14
*582 ANTENNA_15
*583 ANTENNA_16
*584 ANTENNA_17
*585 ANTENNA_18
*586 ANTENNA_2
*587 ANTENNA_3
*588 ANTENNA_4
*589 ANTENNA_5
*590 ANTENNA_6
*591 ANTENNA_7
*592 ANTENNA_8
*593 ANTENNA_9
*594 ANTENNA__300__A
*595 ANTENNA__494__A
*596 ANTENNA__496__A
*597 ANTENNA__498__A
*598 ANTENNA__499__B1
*599 ANTENNA__501__A
*600 ANTENNA__503__A
*601 ANTENNA__507__A
*602 ANTENNA__508__A1
*603 ANTENNA__510__A
*604 ANTENNA__517__A_N
*605 ANTENNA__518__A
*606 ANTENNA__519__A
*607 ANTENNA__521__A
*608 ANTENNA__521__C
*609 ANTENNA__522__A1
*610 ANTENNA__522__B1
*611 ANTENNA__524__A
*612 ANTENNA__524__C
*613 ANTENNA__524__D
*614 ANTENNA__526__A1
*615 ANTENNA__526__A3
*616 ANTENNA__526__B1
*617 ANTENNA__528__A
*618 ANTENNA__529__A
*619 ANTENNA__531__A
*620 ANTENNA__531__B
*621 ANTENNA__533__A1
*622 ANTENNA__533__B1
*623 ANTENNA__535__A
*624 ANTENNA__536__A
*625 ANTENNA__537__A
*626 ANTENNA__539__A
*627 ANTENNA__540__A
*628 ANTENNA__544__A1
*629 ANTENNA__544__S
*630 ANTENNA__545__A1
*631 ANTENNA__545__S
*632 ANTENNA__546__S
*633 ANTENNA__547__S
*634 ANTENNA__548__A1
*635 ANTENNA__548__S
*636 ANTENNA__549__S
*637 ANTENNA__550__S
*638 ANTENNA__551__S
*639 ANTENNA__552__S
*640 ANTENNA__553__S
*641 ANTENNA__554__S
*642 ANTENNA__555__A1
*643 ANTENNA__555__S
*644 ANTENNA__556__S
*645 ANTENNA__557__A1
*646 ANTENNA__557__S
*647 ANTENNA__558__A1
*648 ANTENNA__558__S
*649 ANTENNA__559__A1
*650 ANTENNA__559__S
*651 ANTENNA__560__A
*652 ANTENNA__561__A
*653 ANTENNA__562__A
*654 ANTENNA__563__A
*655 ANTENNA__564__A
*656 ANTENNA__565__A
*657 ANTENNA__566__A
*658 ANTENNA__567__A
*659 ANTENNA__568__A
*660 ANTENNA__569__A
*661 ANTENNA__570__A
*662 ANTENNA__571__A
*663 ANTENNA__572__A
*664 ANTENNA__573__A
*665 ANTENNA__574__A
*666 ANTENNA__575__A
*667 ANTENNA__576__A
*668 ANTENNA__577__A
*669 ANTENNA__578__A
*670 ANTENNA__579__A
*671 ANTENNA__580__A
*672 ANTENNA__581__A
*673 ANTENNA__582__A
*674 ANTENNA__583__A
*675 ANTENNA__584__CLK
*676 ANTENNA__585__CLK
*677 ANTENNA__586__CLK
*678 ANTENNA__587__CLK
*679 ANTENNA__587__Q
*680 ANTENNA__588__CLK
*681 ANTENNA__589__CLK
*682 ANTENNA__589__Q
*683 ANTENNA__590__CLK
*684 ANTENNA__590__Q
*685 ANTENNA__591__CLK
*686 ANTENNA__591__Q
*687 ANTENNA__592__CLK
*688 ANTENNA__592__Q
*689 ANTENNA__593__CLK
*690 ANTENNA__593__Q
*691 ANTENNA__594__CLK
*692 ANTENNA__594__Q
*693 ANTENNA__595__CLK
*694 ANTENNA__596__CLK
*695 ANTENNA__597__CLK
*696 ANTENNA__598__CLK
*697 ANTENNA__599__CLK
*698 ANTENNA__600__CLK
*699 ANTENNA__600__Q
*700 ANTENNA__601__CLK
*701 ANTENNA__602__CLK
*702 ANTENNA__602__Q
*703 ANTENNA__603__CLK
*704 ANTENNA__603__Q
*705 ANTENNA__604__CLK
*706 ANTENNA__604__Q
*707 ANTENNA__605__CLK
*708 ANTENNA__605__Q
*709 ANTENNA__606__CLK
*710 ANTENNA__606__Q
*711 ANTENNA__607__CLK
*712 ANTENNA__607__Q
*713 ANTENNA__608__CLK
*714 ANTENNA__609__CLK
*715 ANTENNA__610__CLK
*716 ANTENNA__611__CLK
*717 ANTENNA__612__CLK
*718 ANTENNA__613__CLK
*719 ANTENNA__614__CLK
*720 ANTENNA__615__CLK
*721 ANTENNA__616__CLK
*722 ANTENNA__617__CLK
*723 ANTENNA__618__CLK
*724 ANTENNA__619__CLK
*725 ANTENNA__620__CLK
*726 ANTENNA__621__CLK
*727 ANTENNA__622__CLK
*728 ANTENNA__622__D
*729 ANTENNA__623__CLK
*730 ANTENNA__624__CLK
*731 ANTENNA__625__CLK
*732 ANTENNA__625__D
*733 ANTENNA__625__Q
*734 ANTENNA__626__CLK
*735 ANTENNA__626__D
*736 ANTENNA__626__Q
*737 ANTENNA__627__CLK
*738 ANTENNA__627__D
*739 ANTENNA__628__CLK
*740 ANTENNA__628__D
*741 ANTENNA__629__CLK
*742 ANTENNA__629__D
*743 ANTENNA__629__Q
*744 ANTENNA__630__CLK
*745 ANTENNA__630__D
*746 ANTENNA__631__CLK
*747 ANTENNA__631__D
*748 ANTENNA__632__CLK
*749 ANTENNA__632__D
*750 ANTENNA__633__CLK
*751 ANTENNA__633__D
*752 ANTENNA__634__CLK
*753 ANTENNA__634__D
*754 ANTENNA__635__CLK
*755 ANTENNA__635__D
*756 ANTENNA__636__CLK
*757 ANTENNA__636__D
*758 ANTENNA__636__Q
*759 ANTENNA__637__CLK
*760 ANTENNA__637__D
*761 ANTENNA__638__CLK
*762 ANTENNA__638__D
*763 ANTENNA__638__Q
*764 ANTENNA__639__CLK
*765 ANTENNA__639__D
*766 ANTENNA__639__Q
*767 ANTENNA__640__CLK
*768 ANTENNA__640__D
*769 ANTENNA__640__Q
*770 ANTENNA__641__CLK
*771 ANTENNA__642__CLK
*772 ANTENNA_clkbuf_0_clk_A
*773 ANTENNA_clkbuf_0_clk_X
*774 ANTENNA_clkbuf_2_0_0_clk_A
*775 ANTENNA_clkbuf_2_0_0_clk_X
*776 ANTENNA_clkbuf_2_1_0_clk_A
*777 ANTENNA_clkbuf_2_1_0_clk_X
*778 ANTENNA_clkbuf_2_2_0_clk_A
*779 ANTENNA_clkbuf_2_2_0_clk_X
*780 ANTENNA_clkbuf_2_3_0_clk_A
*781 ANTENNA_clkbuf_2_3_0_clk_X
*782 ANTENNA_clkbuf_3_0__f_clk_A
*783 ANTENNA_clkbuf_3_0__f_clk_X
*784 ANTENNA_clkbuf_3_1__f_clk_A
*785 ANTENNA_clkbuf_3_1__f_clk_X
*786 ANTENNA_clkbuf_3_2__f_clk_A
*787 ANTENNA_clkbuf_3_2__f_clk_X
*788 ANTENNA_clkbuf_3_3__f_clk_A
*789 ANTENNA_clkbuf_3_3__f_clk_X
*790 ANTENNA_clkbuf_3_4__f_clk_A
*791 ANTENNA_clkbuf_3_4__f_clk_X
*792 ANTENNA_clkbuf_3_5__f_clk_A
*793 ANTENNA_clkbuf_3_5__f_clk_X
*794 ANTENNA_clkbuf_3_6__f_clk_A
*795 ANTENNA_clkbuf_3_6__f_clk_X
*796 ANTENNA_clkbuf_3_7__f_clk_A
*797 ANTENNA_clkbuf_3_7__f_clk_X
*798 ANTENNA_clkload0_A
*799 ANTENNA_clkload1_A
*800 ANTENNA_clkload2_A
*801 ANTENNA_clkload3_A
*802 ANTENNA_fanout100_X
*803 ANTENNA_fanout101_X
*804 ANTENNA_fanout102_A
*805 ANTENNA_fanout102_X
*806 ANTENNA_fanout103_A
*807 ANTENNA_fanout103_X
*808 ANTENNA_fanout104_A
*809 ANTENNA_fanout104_X
*810 ANTENNA_fanout105_A
*811 ANTENNA_fanout105_X
*812 ANTENNA_input10_A
*813 ANTENNA_input10_X
*814 ANTENNA_input11_A
*815 ANTENNA_input12_A
*816 ANTENNA_input13_A
*817 ANTENNA_input14_A
*818 ANTENNA_input15_A
*819 ANTENNA_input16_A
*820 ANTENNA_input17_A
*821 ANTENNA_input17_X
*822 ANTENNA_input18_A
*823 ANTENNA_input19_A
*824 ANTENNA_input1_A
*825 ANTENNA_input1_X
*826 ANTENNA_input20_A
*827 ANTENNA_input21_A
*828 ANTENNA_input22_A
*829 ANTENNA_input23_A
*830 ANTENNA_input23_X
*831 ANTENNA_input24_A
*832 ANTENNA_input25_A
*833 ANTENNA_input26_A
*834 ANTENNA_input27_A
*835 ANTENNA_input28_A
*836 ANTENNA_input29_A
*837 ANTENNA_input2_A
*838 ANTENNA_input2_X
*839 ANTENNA_input30_A
*840 ANTENNA_input30_X
*841 ANTENNA_input31_A
*842 ANTENNA_input31_X
*843 ANTENNA_input32_A
*844 ANTENNA_input32_X
*845 ANTENNA_input33_A
*846 ANTENNA_input33_X
*847 ANTENNA_input34_A
*848 ANTENNA_input35_A
*849 ANTENNA_input36_A
*850 ANTENNA_input37_A
*851 ANTENNA_input38_A
*852 ANTENNA_input39_A
*853 ANTENNA_input39_X
*854 ANTENNA_input3_A
*855 ANTENNA_input3_X
*856 ANTENNA_input40_A
*857 ANTENNA_input40_X
*858 ANTENNA_input41_A
*859 ANTENNA_input41_X
*860 ANTENNA_input42_A
*861 ANTENNA_input42_X
*862 ANTENNA_input43_A
*863 ANTENNA_input43_X
*864 ANTENNA_input44_A
*865 ANTENNA_input44_X
*866 ANTENNA_input45_A
*867 ANTENNA_input45_X
*868 ANTENNA_input46_A
*869 ANTENNA_input46_X
*870 ANTENNA_input47_A
*871 ANTENNA_input47_X
*872 ANTENNA_input48_A
*873 ANTENNA_input48_X
*874 ANTENNA_input49_A
*875 ANTENNA_input49_X
*876 ANTENNA_input4_A
*877 ANTENNA_input4_X
*878 ANTENNA_input50_A
*879 ANTENNA_input50_X
*880 ANTENNA_input51_A
*881 ANTENNA_input51_X
*882 ANTENNA_input52_A
*883 ANTENNA_input52_X
*884 ANTENNA_input53_A
*885 ANTENNA_input53_X
*886 ANTENNA_input54_A
*887 ANTENNA_input54_X
*888 ANTENNA_input55_A
*889 ANTENNA_input56_A
*890 ANTENNA_input57_A
*891 ANTENNA_input58_A
*892 ANTENNA_input59_A
*893 ANTENNA_input59_X
*894 ANTENNA_input5_A
*895 ANTENNA_input5_X
*896 ANTENNA_input6_A
*897 ANTENNA_input6_X
*898 ANTENNA_input7_A
*899 ANTENNA_input7_X
*900 ANTENNA_input8_A
*901 ANTENNA_input8_X
*902 ANTENNA_input9_A
*903 ANTENNA_input9_X
*904 ANTENNA_mem_i0_addr0\[0\]
*905 ANTENNA_mem_i0_addr0\[1\]
*906 ANTENNA_mem_i0_addr0\[2\]
*907 ANTENNA_mem_i0_addr0\[3\]
*908 ANTENNA_mem_i0_addr0\[4\]
*909 ANTENNA_mem_i0_addr0\[5\]
*910 ANTENNA_mem_i0_addr0\[6\]
*911 ANTENNA_mem_i0_addr0\[7\]
*912 ANTENNA_mem_i0_addr1\[0\]
*913 ANTENNA_mem_i0_addr1\[2\]
*914 ANTENNA_mem_i0_addr1\[3\]
*915 ANTENNA_mem_i0_addr1\[4\]
*916 ANTENNA_mem_i0_addr1\[5\]
*917 ANTENNA_mem_i0_addr1\[6\]
*918 ANTENNA_mem_i0_addr1\[7\]
*919 ANTENNA_mem_i0_clk0
*920 ANTENNA_mem_i0_clk1
*921 ANTENNA_mem_i0_csb0
*922 ANTENNA_mem_i0_din0\[0\]
*923 ANTENNA_mem_i0_din0\[1\]
*924 ANTENNA_mem_i0_din0\[2\]
*925 ANTENNA_mem_i0_din0\[3\]
*926 ANTENNA_mem_i0_din0\[4\]
*927 ANTENNA_mem_i0_dout1\[13\]
*928 ANTENNA_mem_i1_addr0\[0\]
*929 ANTENNA_mem_i1_addr0\[1\]
*930 ANTENNA_mem_i1_addr1\[0\]
*931 ANTENNA_mem_i1_addr1\[1\]
*932 ANTENNA_mem_i1_addr1\[2\]
*933 ANTENNA_mem_i1_addr1\[3\]
*934 ANTENNA_mem_i1_addr1\[4\]
*935 ANTENNA_mem_i1_addr1\[5\]
*936 ANTENNA_mem_i1_addr1\[6\]
*937 ANTENNA_mem_i1_addr1\[7\]
*938 ANTENNA_mem_i1_clk0
*939 ANTENNA_mem_i1_clk1
*940 ANTENNA_mem_i1_din0\[0\]
*941 ANTENNA_mem_i1_din0\[10\]
*942 ANTENNA_mem_i1_din0\[11\]
*943 ANTENNA_mem_i1_din0\[12\]
*944 ANTENNA_mem_i1_din0\[13\]
*945 ANTENNA_mem_i1_din0\[14\]
*946 ANTENNA_mem_i1_din0\[15\]
*947 ANTENNA_mem_i1_din0\[1\]
*948 ANTENNA_mem_i1_din0\[2\]
*949 ANTENNA_mem_i1_din0\[3\]
*950 ANTENNA_mem_i1_din0\[4\]
*951 ANTENNA_mem_i1_din0\[5\]
*952 ANTENNA_mem_i1_din0\[6\]
*953 ANTENNA_mem_i1_din0\[7\]
*954 ANTENNA_mem_i1_din0\[8\]
*955 ANTENNA_mem_i1_din0\[9\]
*956 ANTENNA_mem_i1_dout1\[11\]
*957 ANTENNA_mem_i1_dout1\[13\]
*958 ANTENNA_mem_i1_dout1\[4\]
*959 ANTENNA_output61_A
*960 ANTENNA_output69_A
*961 ANTENNA_output71_A
*962 ANTENNA_output72_A
*963 ANTENNA_output73_A
*964 ANTENNA_output74_A
*965 ANTENNA_output75_A
*966 ANTENNA_rebuffer3_X
*967 ANTENNA_wire87_X
*968 ANTENNA_wire88_X
*969 ANTENNA_wire89_X
*970 ANTENNA_wire90_X
*971 ANTENNA_wire91_X
*972 ANTENNA_wire92_X
*973 ANTENNA_wire93_X
*974 ANTENNA_wire94_X
*975 ANTENNA_wire95_X
*976 ANTENNA_wire96_X
*977 ANTENNA_wire97_X
*978 ANTENNA_wire98_X
*979 ANTENNA_wire99_X
*980 FILLER_0_1005
*981 FILLER_0_1009
*982 FILLER_0_1021
*983 FILLER_0_1033
*984 FILLER_0_1037
*985 FILLER_0_1049
*986 FILLER_0_1061
*987 FILLER_0_1065
*988 FILLER_0_1077
*989 FILLER_0_1089
*990 FILLER_0_109
*991 FILLER_0_1093
*992 FILLER_0_1105
*993 FILLER_0_1117
*994 FILLER_0_1121
*995 FILLER_0_113
*996 FILLER_0_1133
*997 FILLER_0_1145
*998 FILLER_0_1149
*999 FILLER_0_1161
*1000 FILLER_0_1167
*1001 FILLER_0_125
*1002 FILLER_0_137
*1003 FILLER_0_141
*1004 FILLER_0_15
*1005 FILLER_0_153
*1006 FILLER_0_165
*1007 FILLER_0_169
*1008 FILLER_0_181
*1009 FILLER_0_193
*1010 FILLER_0_197
*1011 FILLER_0_209
*1012 FILLER_0_221
*1013 FILLER_0_225
*1014 FILLER_0_237
*1015 FILLER_0_249
*1016 FILLER_0_253
*1017 FILLER_0_265
*1018 FILLER_0_27
*1019 FILLER_0_277
*1020 FILLER_0_281
*1021 FILLER_0_29
*1022 FILLER_0_293
*1023 FILLER_0_3
*1024 FILLER_0_305
*1025 FILLER_0_309
*1026 FILLER_0_321
*1027 FILLER_0_329
*1028 FILLER_0_335
*1029 FILLER_0_337
*1030 FILLER_0_343
*1031 FILLER_0_349
*1032 FILLER_0_357
*1033 FILLER_0_363
*1034 FILLER_0_365
*1035 FILLER_0_371
*1036 FILLER_0_377
*1037 FILLER_0_384
*1038 FILLER_0_398
*1039 FILLER_0_406
*1040 FILLER_0_41
*1041 FILLER_0_412
*1042 FILLER_0_426
*1043 FILLER_0_434
*1044 FILLER_0_440
*1045 FILLER_0_447
*1046 FILLER_0_449
*1047 FILLER_0_455
*1048 FILLER_0_461
*1049 FILLER_0_473
*1050 FILLER_0_477
*1051 FILLER_0_489
*1052 FILLER_0_501
*1053 FILLER_0_505
*1054 FILLER_0_517
*1055 FILLER_0_529
*1056 FILLER_0_53
*1057 FILLER_0_533
*1058 FILLER_0_545
*1059 FILLER_0_557
*1060 FILLER_0_561
*1061 FILLER_0_57
*1062 FILLER_0_573
*1063 FILLER_0_585
*1064 FILLER_0_589
*1065 FILLER_0_601
*1066 FILLER_0_613
*1067 FILLER_0_617
*1068 FILLER_0_629
*1069 FILLER_0_641
*1070 FILLER_0_645
*1071 FILLER_0_657
*1072 FILLER_0_669
*1073 FILLER_0_673
*1074 FILLER_0_685
*1075 FILLER_0_69
*1076 FILLER_0_697
*1077 FILLER_0_701
*1078 FILLER_0_713
*1079 FILLER_0_725
*1080 FILLER_0_729
*1081 FILLER_0_741
*1082 FILLER_0_753
*1083 FILLER_0_757
*1084 FILLER_0_769
*1085 FILLER_0_781
*1086 FILLER_0_785
*1087 FILLER_0_797
*1088 FILLER_0_809
*1089 FILLER_0_81
*1090 FILLER_0_813
*1091 FILLER_0_825
*1092 FILLER_0_837
*1093 FILLER_0_841
*1094 FILLER_0_85
*1095 FILLER_0_853
*1096 FILLER_0_865
*1097 FILLER_0_869
*1098 FILLER_0_881
*1099 FILLER_0_893
*1100 FILLER_0_897
*1101 FILLER_0_909
*1102 FILLER_0_921
*1103 FILLER_0_925
*1104 FILLER_0_937
*1105 FILLER_0_949
*1106 FILLER_0_953
*1107 FILLER_0_965
*1108 FILLER_0_97
*1109 FILLER_0_977
*1110 FILLER_0_981
*1111 FILLER_0_993
*1112 FILLER_100_1122
*1113 FILLER_100_1134
*1114 FILLER_100_1146
*1115 FILLER_100_1148
*1116 FILLER_100_1160
*1117 FILLER_100_15
*1118 FILLER_100_27
*1119 FILLER_100_29
*1120 FILLER_100_3
*1121 FILLER_100_41
*1122 FILLER_100_53
*1123 FILLER_100_65
*1124 FILLER_101_1122
*1125 FILLER_101_1134
*1126 FILLER_101_1146
*1127 FILLER_101_1158
*1128 FILLER_101_1166
*1129 FILLER_101_15
*1130 FILLER_101_27
*1131 FILLER_101_3
*1132 FILLER_101_39
*1133 FILLER_101_51
*1134 FILLER_101_55
*1135 FILLER_101_57
*1136 FILLER_101_69
*1137 FILLER_102_1122
*1138 FILLER_102_1134
*1139 FILLER_102_1146
*1140 FILLER_102_1148
*1141 FILLER_102_1160
*1142 FILLER_102_15
*1143 FILLER_102_27
*1144 FILLER_102_29
*1145 FILLER_102_3
*1146 FILLER_102_41
*1147 FILLER_102_53
*1148 FILLER_102_65
*1149 FILLER_103_1122
*1150 FILLER_103_1134
*1151 FILLER_103_1146
*1152 FILLER_103_1158
*1153 FILLER_103_1166
*1154 FILLER_103_15
*1155 FILLER_103_27
*1156 FILLER_103_3
*1157 FILLER_103_39
*1158 FILLER_103_51
*1159 FILLER_103_55
*1160 FILLER_103_57
*1161 FILLER_103_69
*1162 FILLER_104_1122
*1163 FILLER_104_1134
*1164 FILLER_104_1146
*1165 FILLER_104_1148
*1166 FILLER_104_1160
*1167 FILLER_104_15
*1168 FILLER_104_27
*1169 FILLER_104_29
*1170 FILLER_104_3
*1171 FILLER_104_41
*1172 FILLER_104_53
*1173 FILLER_104_65
*1174 FILLER_105_1122
*1175 FILLER_105_1134
*1176 FILLER_105_1146
*1177 FILLER_105_1158
*1178 FILLER_105_1166
*1179 FILLER_105_15
*1180 FILLER_105_27
*1181 FILLER_105_3
*1182 FILLER_105_39
*1183 FILLER_105_51
*1184 FILLER_105_55
*1185 FILLER_105_57
*1186 FILLER_105_69
*1187 FILLER_106_1125
*1188 FILLER_106_1137
*1189 FILLER_106_1145
*1190 FILLER_106_1148
*1191 FILLER_106_1160
*1192 FILLER_106_15
*1193 FILLER_106_27
*1194 FILLER_106_29
*1195 FILLER_106_3
*1196 FILLER_106_41
*1197 FILLER_106_53
*1198 FILLER_106_65
*1199 FILLER_107_1122
*1200 FILLER_107_1134
*1201 FILLER_107_1146
*1202 FILLER_107_1158
*1203 FILLER_107_1166
*1204 FILLER_107_15
*1205 FILLER_107_27
*1206 FILLER_107_3
*1207 FILLER_107_39
*1208 FILLER_107_51
*1209 FILLER_107_55
*1210 FILLER_107_57
*1211 FILLER_107_69
*1212 FILLER_108_1122
*1213 FILLER_108_1134
*1214 FILLER_108_1146
*1215 FILLER_108_1148
*1216 FILLER_108_1160
*1217 FILLER_108_15
*1218 FILLER_108_27
*1219 FILLER_108_29
*1220 FILLER_108_3
*1221 FILLER_108_41
*1222 FILLER_108_53
*1223 FILLER_108_65
*1224 FILLER_109_1122
*1225 FILLER_109_1134
*1226 FILLER_109_1146
*1227 FILLER_109_1158
*1228 FILLER_109_1166
*1229 FILLER_109_15
*1230 FILLER_109_27
*1231 FILLER_109_3
*1232 FILLER_109_39
*1233 FILLER_109_51
*1234 FILLER_109_55
*1235 FILLER_109_57
*1236 FILLER_109_69
*1237 FILLER_10_1122
*1238 FILLER_10_1134
*1239 FILLER_10_1146
*1240 FILLER_10_1148
*1241 FILLER_10_1160
*1242 FILLER_10_13
*1243 FILLER_10_25
*1244 FILLER_10_29
*1245 FILLER_10_41
*1246 FILLER_10_53
*1247 FILLER_10_65
*1248 FILLER_110_1122
*1249 FILLER_110_1134
*1250 FILLER_110_1146
*1251 FILLER_110_1148
*1252 FILLER_110_1160
*1253 FILLER_110_15
*1254 FILLER_110_27
*1255 FILLER_110_29
*1256 FILLER_110_3
*1257 FILLER_110_41
*1258 FILLER_110_53
*1259 FILLER_110_65
*1260 FILLER_111_1122
*1261 FILLER_111_1134
*1262 FILLER_111_1146
*1263 FILLER_111_1158
*1264 FILLER_111_1166
*1265 FILLER_111_15
*1266 FILLER_111_27
*1267 FILLER_111_3
*1268 FILLER_111_39
*1269 FILLER_111_51
*1270 FILLER_111_55
*1271 FILLER_111_57
*1272 FILLER_111_69
*1273 FILLER_112_1122
*1274 FILLER_112_1134
*1275 FILLER_112_1146
*1276 FILLER_112_1148
*1277 FILLER_112_1160
*1278 FILLER_112_15
*1279 FILLER_112_27
*1280 FILLER_112_29
*1281 FILLER_112_3
*1282 FILLER_112_41
*1283 FILLER_112_53
*1284 FILLER_112_65
*1285 FILLER_113_1122
*1286 FILLER_113_1134
*1287 FILLER_113_1146
*1288 FILLER_113_1158
*1289 FILLER_113_1166
*1290 FILLER_113_15
*1291 FILLER_113_27
*1292 FILLER_113_3
*1293 FILLER_113_39
*1294 FILLER_113_51
*1295 FILLER_113_55
*1296 FILLER_113_57
*1297 FILLER_113_69
*1298 FILLER_114_1122
*1299 FILLER_114_1134
*1300 FILLER_114_1146
*1301 FILLER_114_1148
*1302 FILLER_114_1160
*1303 FILLER_114_15
*1304 FILLER_114_27
*1305 FILLER_114_29
*1306 FILLER_114_3
*1307 FILLER_114_41
*1308 FILLER_114_53
*1309 FILLER_114_65
*1310 FILLER_115_1122
*1311 FILLER_115_1134
*1312 FILLER_115_1146
*1313 FILLER_115_1158
*1314 FILLER_115_1166
*1315 FILLER_115_15
*1316 FILLER_115_27
*1317 FILLER_115_3
*1318 FILLER_115_39
*1319 FILLER_115_51
*1320 FILLER_115_55
*1321 FILLER_115_57
*1322 FILLER_115_69
*1323 FILLER_116_1122
*1324 FILLER_116_1134
*1325 FILLER_116_1146
*1326 FILLER_116_1148
*1327 FILLER_116_1160
*1328 FILLER_116_15
*1329 FILLER_116_27
*1330 FILLER_116_29
*1331 FILLER_116_3
*1332 FILLER_116_41
*1333 FILLER_116_53
*1334 FILLER_116_65
*1335 FILLER_117_1004
*1336 FILLER_117_1051
*1337 FILLER_117_1062
*1338 FILLER_117_1072
*1339 FILLER_117_1076
*1340 FILLER_117_1084
*1341 FILLER_117_109
*1342 FILLER_117_1091
*1343 FILLER_117_1104
*1344 FILLER_117_1116
*1345 FILLER_117_1121
*1346 FILLER_117_113
*1347 FILLER_117_1133
*1348 FILLER_117_1145
*1349 FILLER_117_1149
*1350 FILLER_117_1161
*1351 FILLER_117_1167
*1352 FILLER_117_125
*1353 FILLER_117_137
*1354 FILLER_117_141
*1355 FILLER_117_15
*1356 FILLER_117_153
*1357 FILLER_117_165
*1358 FILLER_117_169
*1359 FILLER_117_181
*1360 FILLER_117_193
*1361 FILLER_117_197
*1362 FILLER_117_209
*1363 FILLER_117_221
*1364 FILLER_117_225
*1365 FILLER_117_237
*1366 FILLER_117_249
*1367 FILLER_117_253
*1368 FILLER_117_265
*1369 FILLER_117_27
*1370 FILLER_117_277
*1371 FILLER_117_281
*1372 FILLER_117_29
*1373 FILLER_117_293
*1374 FILLER_117_3
*1375 FILLER_117_305
*1376 FILLER_117_309
*1377 FILLER_117_321
*1378 FILLER_117_333
*1379 FILLER_117_337
*1380 FILLER_117_349
*1381 FILLER_117_361
*1382 FILLER_117_365
*1383 FILLER_117_377
*1384 FILLER_117_389
*1385 FILLER_117_393
*1386 FILLER_117_405
*1387 FILLER_117_41
*1388 FILLER_117_417
*1389 FILLER_117_421
*1390 FILLER_117_433
*1391 FILLER_117_445
*1392 FILLER_117_449
*1393 FILLER_117_461
*1394 FILLER_117_473
*1395 FILLER_117_477
*1396 FILLER_117_489
*1397 FILLER_117_501
*1398 FILLER_117_505
*1399 FILLER_117_517
*1400 FILLER_117_529
*1401 FILLER_117_53
*1402 FILLER_117_533
*1403 FILLER_117_545
*1404 FILLER_117_557
*1405 FILLER_117_561
*1406 FILLER_117_57
*1407 FILLER_117_573
*1408 FILLER_117_585
*1409 FILLER_117_589
*1410 FILLER_117_601
*1411 FILLER_117_613
*1412 FILLER_117_617
*1413 FILLER_117_629
*1414 FILLER_117_641
*1415 FILLER_117_645
*1416 FILLER_117_657
*1417 FILLER_117_669
*1418 FILLER_117_673
*1419 FILLER_117_685
*1420 FILLER_117_69
*1421 FILLER_117_697
*1422 FILLER_117_701
*1423 FILLER_117_713
*1424 FILLER_117_725
*1425 FILLER_117_729
*1426 FILLER_117_735
*1427 FILLER_117_747
*1428 FILLER_117_755
*1429 FILLER_117_757
*1430 FILLER_117_769
*1431 FILLER_117_781
*1432 FILLER_117_798
*1433 FILLER_117_81
*1434 FILLER_117_810
*1435 FILLER_117_813
*1436 FILLER_117_825
*1437 FILLER_117_837
*1438 FILLER_117_841
*1439 FILLER_117_85
*1440 FILLER_117_853
*1441 FILLER_117_865
*1442 FILLER_117_869
*1443 FILLER_117_881
*1444 FILLER_117_893
*1445 FILLER_117_897
*1446 FILLER_117_909
*1447 FILLER_117_921
*1448 FILLER_117_953
*1449 FILLER_117_959
*1450 FILLER_117_97
*1451 FILLER_117_979
*1452 FILLER_117_983
*1453 FILLER_117_992
*1454 FILLER_118_1009
*1455 FILLER_118_1013
*1456 FILLER_118_1016
*1457 FILLER_118_1020
*1458 FILLER_118_1023
*1459 FILLER_118_1035
*1460 FILLER_118_1037
*1461 FILLER_118_1050
*1462 FILLER_118_1086
*1463 FILLER_118_109
*1464 FILLER_118_1099
*1465 FILLER_118_1128
*1466 FILLER_118_1140
*1467 FILLER_118_1149
*1468 FILLER_118_1161
*1469 FILLER_118_1167
*1470 FILLER_118_121
*1471 FILLER_118_133
*1472 FILLER_118_139
*1473 FILLER_118_141
*1474 FILLER_118_15
*1475 FILLER_118_153
*1476 FILLER_118_165
*1477 FILLER_118_177
*1478 FILLER_118_189
*1479 FILLER_118_195
*1480 FILLER_118_197
*1481 FILLER_118_209
*1482 FILLER_118_221
*1483 FILLER_118_233
*1484 FILLER_118_245
*1485 FILLER_118_251
*1486 FILLER_118_253
*1487 FILLER_118_265
*1488 FILLER_118_27
*1489 FILLER_118_277
*1490 FILLER_118_289
*1491 FILLER_118_29
*1492 FILLER_118_3
*1493 FILLER_118_301
*1494 FILLER_118_307
*1495 FILLER_118_309
*1496 FILLER_118_321
*1497 FILLER_118_333
*1498 FILLER_118_345
*1499 FILLER_118_357
*1500 FILLER_118_363
*1501 FILLER_118_365
*1502 FILLER_118_377
*1503 FILLER_118_389
*1504 FILLER_118_401
*1505 FILLER_118_41
*1506 FILLER_118_413
*1507 FILLER_118_419
*1508 FILLER_118_421
*1509 FILLER_118_433
*1510 FILLER_118_445
*1511 FILLER_118_457
*1512 FILLER_118_469
*1513 FILLER_118_475
*1514 FILLER_118_477
*1515 FILLER_118_489
*1516 FILLER_118_501
*1517 FILLER_118_513
*1518 FILLER_118_525
*1519 FILLER_118_53
*1520 FILLER_118_531
*1521 FILLER_118_533
*1522 FILLER_118_545
*1523 FILLER_118_557
*1524 FILLER_118_569
*1525 FILLER_118_581
*1526 FILLER_118_587
*1527 FILLER_118_589
*1528 FILLER_118_601
*1529 FILLER_118_613
*1530 FILLER_118_625
*1531 FILLER_118_637
*1532 FILLER_118_643
*1533 FILLER_118_645
*1534 FILLER_118_65
*1535 FILLER_118_657
*1536 FILLER_118_669
*1537 FILLER_118_681
*1538 FILLER_118_693
*1539 FILLER_118_699
*1540 FILLER_118_701
*1541 FILLER_118_713
*1542 FILLER_118_725
*1543 FILLER_118_737
*1544 FILLER_118_749
*1545 FILLER_118_755
*1546 FILLER_118_757
*1547 FILLER_118_769
*1548 FILLER_118_77
*1549 FILLER_118_781
*1550 FILLER_118_793
*1551 FILLER_118_805
*1552 FILLER_118_811
*1553 FILLER_118_813
*1554 FILLER_118_825
*1555 FILLER_118_83
*1556 FILLER_118_837
*1557 FILLER_118_849
*1558 FILLER_118_85
*1559 FILLER_118_861
*1560 FILLER_118_867
*1561 FILLER_118_869
*1562 FILLER_118_881
*1563 FILLER_118_893
*1564 FILLER_118_905
*1565 FILLER_118_916
*1566 FILLER_118_925
*1567 FILLER_118_933
*1568 FILLER_118_969
*1569 FILLER_118_97
*1570 FILLER_118_977
*1571 FILLER_118_981
*1572 FILLER_118_987
*1573 FILLER_118_997
*1574 FILLER_119_1009
*1575 FILLER_119_1021
*1576 FILLER_119_1032
*1577 FILLER_119_1047
*1578 FILLER_119_105
*1579 FILLER_119_1059
*1580 FILLER_119_1063
*1581 FILLER_119_1065
*1582 FILLER_119_1086
*1583 FILLER_119_1090
*1584 FILLER_119_1099
*1585 FILLER_119_111
*1586 FILLER_119_1118
*1587 FILLER_119_1121
*1588 FILLER_119_113