*SPEF "ieee 1481-1999"
*DESIGN "counter"
*DATE "00:37:01 Wednesday March 05, 2025"
*VENDOR "The OpenROAD Project"
*PROGRAM "OpenROAD"
*VERSION "edf00dff99f6c40d67a30c0e22a8191c5d2ed9d6"
*DESIGN_FLOW "NAME_SCOPE LOCAL" "PIN_CAP NONE"
*DIVIDER /
*DELIMITER :
*BUS_DELIMITER []
*T_UNIT 1 NS
*C_UNIT 1 PF
*R_UNIT 1 OHM
*L_UNIT 1 HENRY

*NAME_MAP
*1 addr00[0]
*2 addr00[1]
*3 addr00[2]
*4 addr00[3]
*5 addr00[4]
*6 addr00[5]
*7 addr00[6]
*8 addr00[7]
*9 addr01[0]
*10 addr01[1]
*11 addr01[2]
*12 addr01[3]
*13 addr01[4]
*14 addr01[5]
*15 addr01[6]
*16 addr01[7]
*17 clk
*18 csb00
*19 csb01
*20 din00[0]
*21 din00[10]
*22 din00[11]
*23 din00[12]
*24 din00[13]
*25 din00[14]
*26 din00[15]
*27 din00[1]
*28 din00[2]
*29 din00[3]
*30 din00[4]
*31 din00[5]
*32 din00[6]
*33 din00[7]
*34 din00[8]
*35 din00[9]
*36 din01[0]
*37 din01[10]
*38 din01[11]
*39 din01[12]
*40 din01[13]
*41 din01[14]
*42 din01[15]
*43 din01[1]
*44 din01[2]
*45 din01[3]
*46 din01[4]
*47 din01[5]
*48 din01[6]
*49 din01[7]
*50 din01[8]
*51 din01[9]
*52 rst
*53 sine_out[0]
*54 sine_out[10]
*55 sine_out[11]
*56 sine_out[12]
*57 sine_out[13]
*58 sine_out[14]
*59 sine_out[15]
*60 sine_out[1]
*61 sine_out[2]
*62 sine_out[3]
*63 sine_out[4]
*64 sine_out[5]
*65 sine_out[6]
*66 sine_out[7]
*67 sine_out[8]
*68 sine_out[9]
*71 _000_
*72 _001_
*73 _002_
*74 _003_
*75 _004_
*76 _005_
*77 _006_
*78 _007_
*79 _008_
*80 _009_
*81 _010_
*82 _011_
*83 _012_
*84 _013_
*85 _014_
*86 _015_
*87 _016_
*88 _017_
*89 _018_
*90 _019_
*91 _020_
*92 _021_
*93 _022_
*94 _023_
*95 _024_
*96 _025_
*97 _026_
*98 _027_
*99 _028_
*100 _029_
*101 _030_
*102 _031_
*103 _032_
*104 _033_
*105 _034_
*106 _035_
*107 _036_
*108 _037_
*109 _038_
*110 _039_
*111 _040_
*112 _041_
*113 _042_
*114 _043_
*115 _044_
*116 _045_
*117 _046_
*118 _047_
*119 _048_
*120 _049_
*121 _050_
*122 _051_
*123 _052_
*124 _053_
*125 _054_
*126 _055_
*127 _056_
*128 _057_
*129 _058_
*130 clknet_0_clk
*131 clknet_2_0_0_clk
*132 clknet_2_1_0_clk
*133 clknet_2_2_0_clk
*134 clknet_2_3_0_clk
*135 net1
*136 net10
*137 net100
*138 net101
*139 net102
*140 net103
*141 net104
*142 net105
*143 net106
*144 net107
*145 net108
*146 net109
*147 net11
*148 net110
*149 net111
*150 net12
*151 net13
*152 net14
*153 net15
*154 net16
*155 net17
*156 net18
*157 net19
*158 net2
*159 net20
*160 net21
*161 net22
*162 net23
*163 net24
*164 net25
*165 net26
*166 net27
*167 net28
*168 net29
*169 net3
*170 net30
*171 net31
*172 net32
*173 net33
*174 net34
*175 net35
*176 net36
*177 net37
*178 net38
*179 net39
*180 net4
*181 net40
*182 net41
*183 net42
*184 net43
*185 net44
*186 net45
*187 net46
*188 net47
*189 net48
*190 net49
*191 net5
*192 net50
*193 net51
*194 net52
*195 net53
*196 net54
*197 net55
*198 net56
*199 net57
*200 net58
*201 net59
*202 net6
*203 net60
*204 net61
*205 net62
*206 net63
*207 net64
*208 net65
*209 net66
*210 net67
*211 net68
*212 net69
*213 net7
*214 net70
*215 net71
*216 net72
*217 net73
*218 net74
*219 net75
*220 net76
*221 net77
*222 net78
*223 net79
*224 net8
*225 net80
*226 net81
*227 net82
*228 net83
*229 net84
*230 net85
*231 net86
*232 net87
*233 net88
*234 net89
*235 net9
*236 net90
*237 net91
*238 net92
*239 net93
*240 net94
*241 net95
*242 net96
*243 net97
*244 net98
*245 net99
*246 sine_out_temp0\[0\]
*247 sine_out_temp0\[10\]
*248 sine_out_temp0\[11\]
*249 sine_out_temp0\[12\]
*250 sine_out_temp0\[13\]
*251 sine_out_temp0\[14\]
*252 sine_out_temp0\[15\]
*253 sine_out_temp0\[1\]
*254 sine_out_temp0\[2\]
*255 sine_out_temp0\[3\]
*256 sine_out_temp0\[4\]
*257 sine_out_temp0\[5\]
*258 sine_out_temp0\[6\]
*259 sine_out_temp0\[7\]
*260 sine_out_temp0\[8\]
*261 sine_out_temp0\[9\]
*262 sine_out_temp1\[0\]
*263 sine_out_temp1\[10\]
*264 sine_out_temp1\[11\]
*265 sine_out_temp1\[12\]
*266 sine_out_temp1\[13\]
*267 sine_out_temp1\[14\]
*268 sine_out_temp1\[15\]
*269 sine_out_temp1\[1\]
*270 sine_out_temp1\[2\]
*271 sine_out_temp1\[3\]
*272 sine_out_temp1\[4\]
*273 sine_out_temp1\[5\]
*274 sine_out_temp1\[6\]
*275 sine_out_temp1\[7\]
*276 sine_out_temp1\[8\]
*277 sine_out_temp1\[9\]
*278 tcout\[0\]
*279 tcout\[1\]
*280 tcout\[2\]
*281 tcout\[3\]
*282 tcout\[4\]
*283 tcout\[5\]
*284 tcout\[6\]
*285 tcout\[7\]
*286 tcout\[8\]
*287 ANTENNA__063__A0
*288 ANTENNA__063__A1
*289 ANTENNA__063__X
*290 ANTENNA__064__A0
*291 ANTENNA__064__A1
*292 ANTENNA__064__X
*293 ANTENNA__065__A0
*294 ANTENNA__065__A1
*295 ANTENNA__065__X
*296 ANTENNA__066__A0
*297 ANTENNA__066__A1
*298 ANTENNA__066__X
*299 ANTENNA__067__A0
*300 ANTENNA__067__A1
*301 ANTENNA__067__X
*302 ANTENNA__068__A0
*303 ANTENNA__068__A1
*304 ANTENNA__068__X
*305 ANTENNA__069__A0
*306 ANTENNA__069__A1
*307 ANTENNA__069__X
*308 ANTENNA__070__A0
*309 ANTENNA__070__A1
*310 ANTENNA__070__X
*311 ANTENNA__071__A0
*312 ANTENNA__071__A1
*313 ANTENNA__071__X
*314 ANTENNA__072__A0
*315 ANTENNA__072__A1
*316 ANTENNA__072__X
*317 ANTENNA__073__A0
*318 ANTENNA__073__A1
*319 ANTENNA__073__S
*320 ANTENNA__073__X
*321 ANTENNA__074__A0
*322 ANTENNA__074__A1
*323 ANTENNA__074__S
*324 ANTENNA__074__X
*325 ANTENNA__075__A0
*326 ANTENNA__075__A1
*327 ANTENNA__075__S
*328 ANTENNA__075__X
*329 ANTENNA__076__A0
*330 ANTENNA__076__A1
*331 ANTENNA__076__S
*332 ANTENNA__076__X
*333 ANTENNA__077__A0
*334 ANTENNA__077__A1
*335 ANTENNA__077__S
*336 ANTENNA__077__X
*337 ANTENNA__078__A0
*338 ANTENNA__078__A1
*339 ANTENNA__078__S
*340 ANTENNA__078__X
*341 ANTENNA__079__A
*342 ANTENNA__079__B
*343 ANTENNA__080__C
*344 ANTENNA__081__B1
*345 ANTENNA__083__C
*346 ANTENNA__083__D
*347 ANTENNA__084__A
*348 ANTENNA__086__A
*349 ANTENNA__087__A
*350 ANTENNA__087__B
*351 ANTENNA__088__A1
*352 ANTENNA__088__B1
*353 ANTENNA__090__A
*354 ANTENNA__091__A
*355 ANTENNA__091__B
*356 ANTENNA__091__X
*357 ANTENNA__092__A
*358 ANTENNA__092__B
*359 ANTENNA__092__D
*360 ANTENNA__093__A1
*361 ANTENNA__093__A2
*362 ANTENNA__093__A3
*363 ANTENNA__093__B1
*364 ANTENNA__095__A
*365 ANTENNA__102__A
*366 ANTENNA__103__A
*367 ANTENNA__104__A
*368 ANTENNA__105__A
*369 ANTENNA__106__A
*370 ANTENNA__107__A
*371 ANTENNA__111__A
*372 ANTENNA__112__A
*373 ANTENNA__113__A
*374 ANTENNA__114__A
*375 ANTENNA__115__A
*376 ANTENNA__116__A
*377 ANTENNA__117__A
*378 ANTENNA__118__A
*379 ANTENNA__119__A
*380 ANTENNA__120__CLK
*381 ANTENNA__120__D
*382 ANTENNA__120__Q
*383 ANTENNA__121__CLK
*384 ANTENNA__121__D
*385 ANTENNA__121__Q
*386 ANTENNA__122__CLK
*387 ANTENNA__122__D
*388 ANTENNA__122__Q
*389 ANTENNA__123__CLK
*390 ANTENNA__123__D
*391 ANTENNA__123__Q
*392 ANTENNA__124__CLK
*393 ANTENNA__124__D
*394 ANTENNA__124__Q
*395 ANTENNA__125__CLK
*396 ANTENNA__125__D
*397 ANTENNA__125__Q
*398 ANTENNA__126__CLK
*399 ANTENNA__126__D
*400 ANTENNA__126__Q
*401 ANTENNA__127__CLK
*402 ANTENNA__127__D
*403 ANTENNA__127__Q
*404 ANTENNA__128__CLK
*405 ANTENNA__129__CLK
*406 ANTENNA__130__CLK
*407 ANTENNA__130__Q
*408 ANTENNA__131__CLK
*409 ANTENNA__131__Q
*410 ANTENNA__132__CLK
*411 ANTENNA__132__Q
*412 ANTENNA__133__CLK
*413 ANTENNA__133__Q
*414 ANTENNA__134__CLK
*415 ANTENNA__134__Q
*416 ANTENNA__135__CLK
*417 ANTENNA__135__Q
*418 ANTENNA__136__CLK
*419 ANTENNA__136__Q
*420 ANTENNA__137__CLK
*421 ANTENNA__137__D
*422 ANTENNA__137__Q
*423 ANTENNA__138__CLK
*424 ANTENNA__138__D
*425 ANTENNA__138__Q
*426 ANTENNA__139__CLK
*427 ANTENNA__139__D
*428 ANTENNA__139__Q
*429 ANTENNA__140__CLK
*430 ANTENNA__140__D
*431 ANTENNA__140__Q
*432 ANTENNA__141__CLK
*433 ANTENNA__141__D
*434 ANTENNA__141__Q
*435 ANTENNA__142__CLK
*436 ANTENNA__142__D
*437 ANTENNA__142__Q
*438 ANTENNA__143__CLK
*439 ANTENNA__143__D
*440 ANTENNA__143__Q
*441 ANTENNA__144__CLK
*442 ANTENNA__144__D
*443 ANTENNA__144__Q
*444 ANTENNA_clkbuf_0_clk_A
*445 ANTENNA_clkbuf_0_clk_X
*446 ANTENNA_clkbuf_2_0_0_clk_A
*447 ANTENNA_clkbuf_2_0_0_clk_X
*448 ANTENNA_clkbuf_2_1_0_clk_A
*449 ANTENNA_clkbuf_2_1_0_clk_X
*450 ANTENNA_clkbuf_2_2_0_clk_A
*451 ANTENNA_clkbuf_2_2_0_clk_X
*452 ANTENNA_clkbuf_2_3_0_clk_A
*453 ANTENNA_clkbuf_2_3_0_clk_X
*454 ANTENNA_clkload0_A
*455 ANTENNA_clkload1_A
*456 ANTENNA_clkload2_A
*457 ANTENNA_fanout100_A
*458 ANTENNA_fanout101_A
*459 ANTENNA_fanout101_X
*460 ANTENNA_fanout107_A
*461 ANTENNA_fanout108_A
*462 ANTENNA_fanout108_X
*463 ANTENNA_fanout109_A
*464 ANTENNA_fanout109_X
*465 ANTENNA_input10_A
*466 ANTENNA_input11_A
*467 ANTENNA_input11_X
*468 ANTENNA_input12_A
*469 ANTENNA_input12_X
*470 ANTENNA_input13_A
*471 ANTENNA_input13_X
*472 ANTENNA_input14_A
*473 ANTENNA_input14_X
*474 ANTENNA_input15_A
*475 ANTENNA_input15_X
*476 ANTENNA_input16_A
*477 ANTENNA_input16_X
*478 ANTENNA_input17_A
*479 ANTENNA_input18_A
*480 ANTENNA_input19_A
*481 ANTENNA_input19_X
*482 ANTENNA_input1_A
*483 ANTENNA_input1_X
*484 ANTENNA_input20_A
*485 ANTENNA_input21_A
*486 ANTENNA_input22_A
*487 ANTENNA_input23_A
*488 ANTENNA_input24_A
*489 ANTENNA_input25_A
*490 ANTENNA_input26_A
*491 ANTENNA_input26_X
*492 ANTENNA_input27_A
*493 ANTENNA_input27_X
*494 ANTENNA_input28_A
*495 ANTENNA_input28_X
*496 ANTENNA_input29_A
*497 ANTENNA_input29_X
*498 ANTENNA_input2_A
*499 ANTENNA_input2_X
*500 ANTENNA_input30_A
*501 ANTENNA_input30_X
*502 ANTENNA_input31_A
*503 ANTENNA_input31_X
*504 ANTENNA_input32_A
*505 ANTENNA_input32_X
*506 ANTENNA_input33_A
*507 ANTENNA_input33_X
*508 ANTENNA_input34_A
*509 ANTENNA_input35_A
*510 ANTENNA_input36_A
*511 ANTENNA_input37_A
*512 ANTENNA_input38_A
*513 ANTENNA_input39_A
*514 ANTENNA_input3_A
*515 ANTENNA_input3_X
*516 ANTENNA_input40_A
*517 ANTENNA_input41_A
*518 ANTENNA_input42_A
*519 ANTENNA_input43_A
*520 ANTENNA_input44_A
*521 ANTENNA_input45_A
*522 ANTENNA_input46_A
*523 ANTENNA_input47_A
*524 ANTENNA_input48_A
*525 ANTENNA_input49_A
*526 ANTENNA_input4_A
*527 ANTENNA_input4_X
*528 ANTENNA_input50_A
*529 ANTENNA_input51_A
*530 ANTENNA_input51_X
*531 ANTENNA_input5_A
*532 ANTENNA_input5_X
*533 ANTENNA_input6_A
*534 ANTENNA_input6_X
*535 ANTENNA_input7_A
*536 ANTENNA_input7_X
*537 ANTENNA_input8_A
*538 ANTENNA_input8_X
*539 ANTENNA_input9_A
*540 ANTENNA_load_slew102_A
*541 ANTENNA_load_slew102_X
*542 ANTENNA_load_slew103_A
*543 ANTENNA_load_slew103_X
*544 ANTENNA_load_slew104_A
*545 ANTENNA_load_slew104_X
*546 ANTENNA_load_slew105_X
*547 ANTENNA_load_slew106_X
*548 ANTENNA_mem_i0_addr0\[0\]
*549 ANTENNA_mem_i0_addr0\[1\]
*550 ANTENNA_mem_i0_addr0\[2\]
*551 ANTENNA_mem_i0_addr0\[3\]
*552 ANTENNA_mem_i0_addr0\[4\]
*553 ANTENNA_mem_i0_addr0\[5\]
*554 ANTENNA_mem_i0_addr0\[6\]
*555 ANTENNA_mem_i0_addr0\[7\]
*556 ANTENNA_mem_i0_addr1\[0\]
*557 ANTENNA_mem_i0_addr1\[1\]
*558 ANTENNA_mem_i0_addr1\[2\]
*559 ANTENNA_mem_i0_addr1\[3\]
*560 ANTENNA_mem_i0_addr1\[4\]
*561 ANTENNA_mem_i0_addr1\[5\]
*562 ANTENNA_mem_i0_addr1\[6\]
*563 ANTENNA_mem_i0_addr1\[7\]
*564 ANTENNA_mem_i0_clk0
*565 ANTENNA_mem_i0_clk1
*566 ANTENNA_mem_i0_din0\[0\]
*567 ANTENNA_mem_i0_din0\[1\]
*568 ANTENNA_mem_i0_din0\[2\]
*569 ANTENNA_mem_i0_din0\[3\]
*570 ANTENNA_mem_i0_din0\[4\]
*571 ANTENNA_mem_i0_din0\[5\]
*572 ANTENNA_mem_i0_din0\[6\]
*573 ANTENNA_mem_i0_din0\[7\]
*574 ANTENNA_mem_i0_din0\[8\]
*575 ANTENNA_mem_i0_dout1\[0\]
*576 ANTENNA_mem_i0_dout1\[10\]
*577 ANTENNA_mem_i0_dout1\[11\]
*578 ANTENNA_mem_i0_dout1\[12\]
*579 ANTENNA_mem_i0_dout1\[13\]
*580 ANTENNA_mem_i0_dout1\[14\]
*581 ANTENNA_mem_i0_dout1\[15\]
*582 ANTENNA_mem_i0_dout1\[1\]
*583 ANTENNA_mem_i0_dout1\[2\]
*584 ANTENNA_mem_i0_dout1\[3\]
*585 ANTENNA_mem_i0_dout1\[4\]
*586 ANTENNA_mem_i0_dout1\[5\]
*587 ANTENNA_mem_i0_dout1\[6\]
*588 ANTENNA_mem_i0_dout1\[7\]
*589 ANTENNA_mem_i0_dout1\[8\]
*590 ANTENNA_mem_i0_dout1\[9\]
*591 ANTENNA_mem_i1_addr0\[2\]
*592 ANTENNA_mem_i1_addr0\[3\]
*593 ANTENNA_mem_i1_addr0\[4\]
*594 ANTENNA_mem_i1_addr0\[5\]
*595 ANTENNA_mem_i1_addr0\[6\]
*596 ANTENNA_mem_i1_addr0\[7\]
*597 ANTENNA_mem_i1_addr1\[0\]
*598 ANTENNA_mem_i1_addr1\[1\]
*599 ANTENNA_mem_i1_addr1\[2\]
*600 ANTENNA_mem_i1_addr1\[3\]
*601 ANTENNA_mem_i1_addr1\[4\]
*602 ANTENNA_mem_i1_addr1\[5\]
*603 ANTENNA_mem_i1_addr1\[6\]
*604 ANTENNA_mem_i1_addr1\[7\]
*605 ANTENNA_mem_i1_clk0
*606 ANTENNA_mem_i1_clk1
*607 ANTENNA_mem_i1_dout1\[10\]
*608 ANTENNA_mem_i1_dout1\[11\]
*609 ANTENNA_mem_i1_dout1\[12\]
*610 ANTENNA_mem_i1_dout1\[13\]
*611 ANTENNA_mem_i1_dout1\[14\]
*612 ANTENNA_mem_i1_dout1\[15\]
*613 ANTENNA_mem_i1_dout1\[1\]
*614 ANTENNA_mem_i1_dout1\[2\]
*615 ANTENNA_mem_i1_dout1\[3\]
*616 ANTENNA_mem_i1_dout1\[4\]
*617 ANTENNA_mem_i1_dout1\[5\]
*618 ANTENNA_mem_i1_dout1\[6\]
*619 ANTENNA_mem_i1_dout1\[7\]
*620 ANTENNA_mem_i1_dout1\[8\]
*621 ANTENNA_mem_i1_dout1\[9\]
*622 ANTENNA_output52_A
*623 ANTENNA_output53_A
*624 ANTENNA_output54_A
*625 ANTENNA_output55_A
*626 ANTENNA_output56_A
*627 ANTENNA_output57_A
*628 ANTENNA_output58_A
*629 ANTENNA_output59_A
*630 ANTENNA_output60_A
*631 ANTENNA_output61_A
*632 ANTENNA_output62_A
*633 ANTENNA_output63_A
*634 ANTENNA_output64_A
*635 ANTENNA_output65_A
*636 ANTENNA_output66_A
*637 ANTENNA_output67_A
*638 ANTENNA_wire68_A
*639 ANTENNA_wire68_X
*640 ANTENNA_wire69_A
*641 ANTENNA_wire69_X
*642 ANTENNA_wire70_A
*643 ANTENNA_wire70_X
*644 ANTENNA_wire71_A
*645 ANTENNA_wire71_X
*646 ANTENNA_wire72_A
*647 ANTENNA_wire72_X
*648 ANTENNA_wire73_A
*649 ANTENNA_wire73_X
*650 ANTENNA_wire74_A
*651 ANTENNA_wire74_X
*652 ANTENNA_wire75_A
*653 ANTENNA_wire75_X
*654 ANTENNA_wire76_A
*655 ANTENNA_wire76_X
*656 ANTENNA_wire77_A
*657 ANTENNA_wire77_X
*658 ANTENNA_wire78_A
*659 ANTENNA_wire78_X
*660 ANTENNA_wire79_A
*661 ANTENNA_wire79_X
*662 ANTENNA_wire80_A
*663 ANTENNA_wire80_X
*664 ANTENNA_wire81_A
*665 ANTENNA_wire81_X
*666 ANTENNA_wire82_A
*667 ANTENNA_wire82_X
*668 ANTENNA_wire83_X
*669 ANTENNA_wire84_A
*670 ANTENNA_wire84_X
*671 ANTENNA_wire85_A
*672 ANTENNA_wire85_X
*673 ANTENNA_wire86_A
*674 ANTENNA_wire86_X
*675 ANTENNA_wire87_A
*676 ANTENNA_wire87_X
*677 ANTENNA_wire88_A
*678 ANTENNA_wire88_X
*679 ANTENNA_wire89_A
*680 ANTENNA_wire89_X
*681 ANTENNA_wire90_A
*682 ANTENNA_wire90_X
*683 ANTENNA_wire91_A
*684 ANTENNA_wire91_X
*685 ANTENNA_wire92_A
*686 ANTENNA_wire92_X
*687 ANTENNA_wire93_A
*688 ANTENNA_wire93_X
*689 ANTENNA_wire94_A
*690 ANTENNA_wire94_X
*691 ANTENNA_wire95_A
*692 ANTENNA_wire95_X
*693 ANTENNA_wire96_A
*694 ANTENNA_wire96_X
*695 ANTENNA_wire97_A
*696 ANTENNA_wire97_X
*697 ANTENNA_wire98_A
*698 ANTENNA_wire98_X
*699 ANTENNA_wire99_A
*700 ANTENNA_wire99_X
*701 FILLER_0_1005
*702 FILLER_0_1009
*703 FILLER_0_1021
*704 FILLER_0_1033
*705 FILLER_0_1037
*706 FILLER_0_1049
*707 FILLER_0_1061
*708 FILLER_0_1065
*709 FILLER_0_1077
*710 FILLER_0_1089
*711 FILLER_0_109
*712 FILLER_0_1093
*713 FILLER_0_1105
*714 FILLER_0_1117
*715 FILLER_0_1121
*716 FILLER_0_113
*717 FILLER_0_1133
*718 FILLER_0_1145
*719 FILLER_0_1149
*720 FILLER_0_1155
*721 FILLER_0_1162
*722 FILLER_0_1170
*723 FILLER_0_1183
*724 FILLER_0_1190
*725 FILLER_0_1202
*726 FILLER_0_1211
*727 FILLER_0_1225
*728 FILLER_0_1231
*729 FILLER_0_1239
*730 FILLER_0_125
*731 FILLER_0_1253
*732 FILLER_0_1259
*733 FILLER_0_1261
*734 FILLER_0_1267
*735 FILLER_0_1274
*736 FILLER_0_1289
*737 FILLER_0_1301
*738 FILLER_0_1311
*739 FILLER_0_1315
*740 FILLER_0_1323
*741 FILLER_0_1331
*742 FILLER_0_1339
*743 FILLER_0_1343
*744 FILLER_0_1345
*745 FILLER_0_1357
*746 FILLER_0_1369
*747 FILLER_0_137
*748 FILLER_0_1373
*749 FILLER_0_1385
*750 FILLER_0_1395
*751 FILLER_0_141
*752 FILLER_0_1416
*753 FILLER_0_1423
*754 FILLER_0_1437
*755 FILLER_0_1444
*756 FILLER_0_1451
*757 FILLER_0_1463
*758 FILLER_0_1475
*759 FILLER_0_1483
*760 FILLER_0_1485
*761 FILLER_0_1497
*762 FILLER_0_15
*763 FILLER_0_1509
*764 FILLER_0_1513
*765 FILLER_0_1525
*766 FILLER_0_153
*767 FILLER_0_1537
*768 FILLER_0_1541
*769 FILLER_0_1547
*770 FILLER_0_1553
*771 FILLER_0_1561
*772 FILLER_0_1567
*773 FILLER_0_1574
*774 FILLER_0_1582
*775 FILLER_0_1588
*776 FILLER_0_1602
*777 FILLER_0_1610
*778 FILLER_0_1616
*779 FILLER_0_1630
*780 FILLER_0_1637
*781 FILLER_0_1645
*782 FILLER_0_165
*783 FILLER_0_1651
*784 FILLER_0_1653
*785 FILLER_0_1659
*786 FILLER_0_1665
*787 FILLER_0_1673
*788 FILLER_0_1679
*789 FILLER_0_1681
*790 FILLER_0_1687
*791 FILLER_0_169
*792 FILLER_0_1693
*793 FILLER_0_1700
*794 FILLER_0_1714
*795 FILLER_0_1722
*796 FILLER_0_1728
*797 FILLER_0_1742
*798 FILLER_0_1750
*799 FILLER_0_1756
*800 FILLER_0_1770
*801 FILLER_0_1782
*802 FILLER_0_1790
*803 FILLER_0_1793
*804 FILLER_0_1805
*805 FILLER_0_181
*806 FILLER_0_1817
*807 FILLER_0_1821
*808 FILLER_0_1833
*809 FILLER_0_1845
*810 FILLER_0_1849
*811 FILLER_0_1861
*812 FILLER_0_1873
*813 FILLER_0_1877
*814 FILLER_0_1889
*815 FILLER_0_1901
*816 FILLER_0_1905
*817 FILLER_0_1917
*818 FILLER_0_1929
*819 FILLER_0_193
*820 FILLER_0_1933
*821 FILLER_0_1945
*822 FILLER_0_1957
*823 FILLER_0_1961
*824 FILLER_0_197
*825 FILLER_0_1973
*826 FILLER_0_1985
*827 FILLER_0_1989
*828 FILLER_0_2001
*829 FILLER_0_2013
*830 FILLER_0_2017
*831 FILLER_0_2029
*832 FILLER_0_2041
*833 FILLER_0_2045
*834 FILLER_0_2057
*835 FILLER_0_2069
*836 FILLER_0_2073
*837 FILLER_0_2085
*838 FILLER_0_209
*839 FILLER_0_2097
*840 FILLER_0_2101
*841 FILLER_0_2113
*842 FILLER_0_2125
*843 FILLER_0_2129
*844 FILLER_0_2141
*845 FILLER_0_2153
*846 FILLER_0_2157
*847 FILLER_0_2169
*848 FILLER_0_2181
*849 FILLER_0_2185
*850 FILLER_0_2197
*851 FILLER_0_2209
*852 FILLER_0_221
*853 FILLER_0_2213
*854 FILLER_0_2225
*855 FILLER_0_2237
*856 FILLER_0_2241
*857 FILLER_0_225
*858 FILLER_0_2253
*859 FILLER_0_2265
*860 FILLER_0_2269
*861 FILLER_0_2281
*862 FILLER_0_2293
*863 FILLER_0_2297
*864 FILLER_0_2309
*865 FILLER_0_2321
*866 FILLER_0_2325
*867 FILLER_0_2337
*868 FILLER_0_2349
*869 FILLER_0_2353
*870 FILLER_0_2365
*871 FILLER_0_237
*872 FILLER_0_2377
*873 FILLER_0_2381
*874 FILLER_0_2393
*875 FILLER_0_2405
*876 FILLER_0_2409
*877 FILLER_0_2421
*878 FILLER_0_2433
*879 FILLER_0_2437
*880 FILLER_0_2449
*881 FILLER_0_2461
*882 FILLER_0_2465
*883 FILLER_0_2477
*884 FILLER_0_2489
*885 FILLER_0_249
*886 FILLER_0_2493
*887 FILLER_0_2505
*888 FILLER_0_2517
*889 FILLER_0_2521
*890 FILLER_0_253
*891 FILLER_0_2533
*892 FILLER_0_2545
*893 FILLER_0_2549
*894 FILLER_0_2561
*895 FILLER_0_2573
*896 FILLER_0_2577
*897 FILLER_0_265
*898 FILLER_0_27
*899 FILLER_0_277
*900 FILLER_0_281
*901 FILLER_0_29
*902 FILLER_0_293
*903 FILLER_0_3
*904 FILLER_0_305
*905 FILLER_0_309
*906 FILLER_0_321
*907 FILLER_0_333
*908 FILLER_0_337
*909 FILLER_0_349
*910 FILLER_0_361
*911 FILLER_0_365
*912 FILLER_0_377
*913 FILLER_0_384
*914 FILLER_0_398
*915 FILLER_0_406
*916 FILLER_0_41
*917 FILLER_0_412
*918 FILLER_0_426
*919 FILLER_0_434
*920 FILLER_0_440
*921 FILLER_0_447
*922 FILLER_0_449
*923 FILLER_0_455
*924 FILLER_0_461
*925 FILLER_0_473
*926 FILLER_0_477
*927 FILLER_0_489
*928 FILLER_0_501
*929 FILLER_0_505
*930 FILLER_0_517
*931 FILLER_0_529
*932 FILLER_0_53
*933 FILLER_0_533
*934 FILLER_0_545
*935 FILLER_0_557
*936 FILLER_0_561
*937 FILLER_0_57
*938 FILLER_0_573
*939 FILLER_0_585
*940 FILLER_0_589
*941 FILLER_0_601
*942 FILLER_0_613
*943 FILLER_0_617
*944 FILLER_0_629
*945 FILLER_0_641
*946 FILLER_0_645
*947 FILLER_0_657
*948 FILLER_0_669
*949 FILLER_0_673
*950 FILLER_0_685
*951 FILLER_0_69
*952 FILLER_0_697
*953 FILLER_0_701
*954 FILLER_0_713
*955 FILLER_0_725
*956 FILLER_0_729
*957 FILLER_0_741
*958 FILLER_0_753
*959 FILLER_0_757
*960 FILLER_0_769
*961 FILLER_0_781
*962 FILLER_0_785
*963 FILLER_0_797
*964 FILLER_0_809
*965 FILLER_0_81
*966 FILLER_0_813
*967 FILLER_0_825
*968 FILLER_0_837
*969 FILLER_0_841
*970 FILLER_0_85
*971 FILLER_0_853
*972 FILLER_0_865
*973 FILLER_0_869
*974 FILLER_0_881
*975 FILLER_0_893
*976 FILLER_0_897
*977 FILLER_0_909
*978 FILLER_0_921
*979 FILLER_0_925
*980 FILLER_0_937
*981 FILLER_0_949
*982 FILLER_0_953
*983 FILLER_0_965
*984 FILLER_0_97
*985 FILLER_0_977
*986 FILLER_0_981
*987 FILLER_0_993
*988 FILLER_100_1122
*989 FILLER_100_1134
*990 FILLER_100_1146
*991 FILLER_100_1148
*992 FILLER_100_1160
*993 FILLER_100_1172
*994 FILLER_100_1184
*995 FILLER_100_1196
*996 FILLER_100_1202
*997 FILLER_100_1204
*998 FILLER_100_1216
*999 FILLER_100_1228
*1000 FILLER_100_1240
*1001 FILLER_100_1252
*1002 FILLER_100_1258
*1003 FILLER_100_1260
*1004 FILLER_100_1272
*1005 FILLER_100_1284
*1006 FILLER_100_1296
*1007 FILLER_100_1308
*1008 FILLER_100_1314
*1009 FILLER_100_1316
*1010 FILLER_100_1328
*1011 FILLER_100_1340
*1012 FILLER_100_1352
*1013 FILLER_100_1364
*1014 FILLER_100_1370
*1015 FILLER_100_1372
*1016 FILLER_100_15
*1017 FILLER_100_2426
*1018 FILLER_100_2438
*1019 FILLER_100_2450
*1020 FILLER_100_2452
*1021 FILLER_100_2464
*1022 FILLER_100_2476
*1023 FILLER_100_2488
*1024 FILLER_100_2500
*1025 FILLER_100_2506
*1026 FILLER_100_2508
*1027 FILLER_100_2520
*1028 FILLER_100_2532
*1029 FILLER_100_2544
*1030 FILLER_100_2556
*1031 FILLER_100_2562
*1032 FILLER_100_2564
*1033 FILLER_100_2576
*1034 FILLER_100_2580
*1035 FILLER_100_27
*1036 FILLER_100_29
*1037 FILLER_100_3
*1038 FILLER_100_41
*1039 FILLER_100_53
*1040 FILLER_100_65
*1041 FILLER_101_1122
*1042 FILLER_101_1134
*1043 FILLER_101_1146
*1044 FILLER_101_1158
*1045 FILLER_101_1170
*1046 FILLER_101_1174
*1047 FILLER_101_1176
*1048 FILLER_101_1188
*1049 FILLER_101_1200
*1050 FILLER_101_1212
*1051 FILLER_101_1224
*1052 FILLER_101_1230
*1053 FILLER_101_1232
*1054 FILLER_101_1244
*1055 FILLER_101_1256
*1056 FILLER_101_1268
*1057 FILLER_101_1280
*1058 FILLER_101_1286
*1059 FILLER_101_1288
*1060 FILLER_101_1300
*1061 FILLER_101_1312
*1062 FILLER_101_1324
*1063 FILLER_101_1336
*1064 FILLER_101_1342
*1065 FILLER_101_1344
*1066 FILLER_101_1356
*1067 FILLER_101_1368
*1068 FILLER_101_15
*1069 FILLER_101_2426
*1070 FILLER_101_2438
*1071 FILLER_101_2450
*1072 FILLER_101_2462
*1073 FILLER_101_2474
*1074 FILLER_101_2478
*1075 FILLER_101_2480
*1076 FILLER_101_2492
*1077 FILLER_101_2504
*1078 FILLER_101_2516
*1079 FILLER_101_2528
*1080 FILLER_101_2534
*1081 FILLER_101_2536
*1082 FILLER_101_2548
*1083 FILLER_101_2560
*1084 FILLER_101_2572
*1085 FILLER_101_2580
*1086 FILLER_101_27
*1087 FILLER_101_3
*1088 FILLER_101_39
*1089 FILLER_101_51
*1090 FILLER_101_55
*1091 FILLER_101_57
*1092 FILLER_101_69
*1093 FILLER_102_1122
*1094 FILLER_102_1134
*1095 FILLER_102_1146
*1096 FILLER_102_1148
*1097 FILLER_102_1160
*1098 FILLER_102_1172
*1099 FILLER_102_1184
*1100 FILLER_102_1196
*1101 FILLER_102_1202
*1102 FILLER_102_1204
*1103 FILLER_102_1216
*1104 FILLER_102_1228
*1105 FILLER_102_1240
*1106 FILLER_102_1252
*1107 FILLER_102_1258
*1108 FILLER_102_1260
*1109 FILLER_102_1272
*1110 FILLER_102_1284
*1111 FILLER_102_1296
*1112 FILLER_102_1308
*1113 FILLER_102_1314
*1114 FILLER_102_1316
*1115 FILLER_102_1328
*1116 FILLER_102_1340
*1117 FILLER_102_1352
*1118 FILLER_102_1364
*1119 FILLER_102_1370
*1120 FILLER_102_1372
*1121 FILLER_102_15
*1122 FILLER_102_2426
*1123 FILLER_102_2438
*1124 FILLER_102_2450
*1125 FILLER_102_2452
*1126 FILLER_102_2464
*1127 FILLER_102_2476
*1128 FILLER_102_2488
*1129 FILLER_102_2500
*1130 FILLER_102_2506
*1131 FILLER_102_2508
*1132 FILLER_102_2520
*1133 FILLER_102_2532
*1134 FILLER_102_2544
*1135 FILLER_102_2556
*1136 FILLER_102_2562
*1137 FILLER_102_2564
*1138 FILLER_102_2576
*1139 FILLER_102_2580
*1140 FILLER_102_27
*1141 FILLER_102_29
*1142 FILLER_102_3
*1143 FILLER_102_41
*1144 FILLER_102_53
*1145 FILLER_102_65
*1146 FILLER_103_1122
*1147 FILLER_103_1134
*1148 FILLER_103_1146
*1149 FILLER_103_1158
*1150 FILLER_103_1170
*1151 FILLER_103_1174
*1152 FILLER_103_1176
*1153 FILLER_103_1188
*1154 FILLER_103_1200
*1155 FILLER_103_1212
*1156 FILLER_103_1224
*1157 FILLER_103_1230
*1158 FILLER_103_1232
*1159 FILLER_103_1244
*1160 FILLER_103_1256
*1161 FILLER_103_1268
*1162 FILLER_103_1280
*1163 FILLER_103_1286
*1164 FILLER_103_1288
*1165 FILLER_103_1300
*1166 FILLER_103_1312
*1167 FILLER_103_1324
*1168 FILLER_103_1336
*1169 FILLER_103_1342
*1170 FILLER_103_1344
*1171 FILLER_103_1356
*1172 FILLER_103_1368
*1173 FILLER_103_15
*1174 FILLER_103_2426
*1175 FILLER_103_2438
*1176 FILLER_103_2450
*1177 FILLER_103_2462
*1178 FILLER_103_2474
*1179 FILLER_103_2478
*1180 FILLER_103_2480
*1181 FILLER_103_2492
*1182 FILLER_103_2504
*1183 FILLER_103_2516
*1184 FILLER_103_2528
*1185 FILLER_103_2534
*1186 FILLER_103_2536
*1187 FILLER_103_2548
*1188 FILLER_103_2560
*1189 FILLER_103_2572
*1190 FILLER_103_2580
*1191 FILLER_103_27
*1192 FILLER_103_3
*1193 FILLER_103_39
*1194 FILLER_103_51
*1195 FILLER_103_55
*1196 FILLER_103_57
*1197 FILLER_103_69
*1198 FILLER_104_1122
*1199 FILLER_104_1134
*1200 FILLER_104_1146
*1201 FILLER_104_1148
*1202 FILLER_104_1160
*1203 FILLER_104_1172
*1204 FILLER_104_1184
*1205 FILLER_104_1196
*1206 FILLER_104_1202
*1207 FILLER_104_1204
*1208 FILLER_104_1216
*1209 FILLER_104_1228
*1210 FILLER_104_1240
*1211 FILLER_104_1252
*1212 FILLER_104_1258
*1213 FILLER_104_1260
*1214 FILLER_104_1272
*1215 FILLER_104_1284
*1216 FILLER_104_1296
*1217 FILLER_104_1308
*1218 FILLER_104_1314
*1219 FILLER_104_1316
*1220 FILLER_104_1328
*1221 FILLER_104_1340
*1222 FILLER_104_1352
*1223 FILLER_104_1364
*1224 FILLER_104_1370
*1225 FILLER_104_1372
*1226 FILLER_104_15
*1227 FILLER_104_2426
*1228 FILLER_104_2438
*1229 FILLER_104_2450
*1230 FILLER_104_2452
*1231 FILLER_104_2464
*1232 FILLER_104_2476
*1233 FILLER_104_2488
*1234 FILLER_104_2500
*1235 FILLER_104_2506
*1236 FILLER_104_2508
*1237 FILLER_104_2520
*1238 FILLER_104_2532
*1239 FILLER_104_2544
*1240 FILLER_104_2556
*1241 FILLER_104_2562
*1242 FILLER_104_2564
*1243 FILLER_104_2576
*1244 FILLER_104_2580
*1245 FILLER_104_27
*1246 FILLER_104_29
*1247 FILLER_104_3
*1248 FILLER_104_41
*1249 FILLER_104_53
*1250 FILLER_104_65
*1251 FILLER_105_1122
*1252 FILLER_105_1134
*1253 FILLER_105_1146
*1254 FILLER_105_1158
*1255 FILLER_105_1170
*1256 FILLER_105_1174
*1257 FILLER_105_1176
*1258 FILLER_105_1188
*1259 FILLER_105_1200
*1260 FILLER_105_1212
*1261 FILLER_105_1224
*1262 FILLER_105_1230
*1263 FILLER_105_1232
*1264 FILLER_105_1244
*1265 FILLER_105_1256
*1266 FILLER_105_1268
*1267 FILLER_105_1280
*1268 FILLER_105_1286
*1269 FILLER_105_1288
*1270 FILLER_105_1300
*1271 FILLER_105_1312
*1272 FILLER_105_1324
*1273 FILLER_105_1336
*1274 FILLER_105_1342
*1275 FILLER_105_1344
*1276 FILLER_105_1356
*1277 FILLER_105_1368
*1278 FILLER_105_15
*1279 FILLER_105_2426
*1280 FILLER_105_2438
*1281 FILLER_105_2450
*1282 FILLER_105_2462
*1283 FILLER_105_2474
*1284 FILLER_105_2478
*1285 FILLER_105_2480
*1286 FILLER_105_2492
*1287 FILLER_105_2504
*1288 FILLER_105_2516
*1289 FILLER_105_2528
*1290 FILLER_105_2534
*1291 FILLER_105_2536
*1292 FILLER_105_2548
*1293 FILLER_105_2560
*1294 FILLER_105_2572
*1295 FILLER_105_2580
*1296 FILLER_105_27
*1297 FILLER_105_3
*1298 FILLER_105_39
*1299 FILLER_105_51
*1300 FILLER_105_55
*1301 FILLER_105_57
*1302 FILLER_105_69
*1303 FILLER_106_1125
*1304 FILLER_106_1137
*1305 FILLER_106_1145
*1306 FILLER_106_1148
*1307 FILLER_106_1160
*1308 FILLER_106_1172
*1309 FILLER_106_1184
*1310 FILLER_106_1196
*1311 FILLER_106_1202
*1312 FILLER_106_1204
*1313 FILLER_106_1216
*1314 FILLER_106_1228
*1315 FILLER_106_1240
*1316 FILLER_106_1252
*1317 FILLER_106_1258
*1318 FILLER_106_1260
*1319 FILLER_106_1272
*1320 FILLER_106_1284
*1321 FILLER_106_1296
*1322 FILLER_106_1308
*1323 FILLER_106_1314
*1324 FILLER_106_1316
*1325 FILLER_106_1328
*1326 FILLER_106_1340
*1327 FILLER_106_1352
*1328 FILLER_106_1364
*1329 FILLER_106_1370
*1330 FILLER_106_1372
*1331 FILLER_106_15
*1332 FILLER_106_2429
*1333 FILLER_106_2441
*1334 FILLER_106_2449
*1335 FILLER_106_2452
*1336 FILLER_106_2464
*1337 FILLER_106_2476
*1338 FILLER_106_2488
*1339 FILLER_106_2500
*1340 FILLER_106_2506
*1341 FILLER_106_2508
*1342 FILLER_106_2520
*1343 FILLER_106_2532
*1344 FILLER_106_2544
*1345 FILLER_106_2556
*1346 FILLER_106_2562
*1347 FILLER_106_2564
*1348 FILLER_106_2576
*1349 FILLER_106_2580
*1350 FILLER_106_27
*1351 FILLER_106_29
*1352 FILLER_106_3
*1353 FILLER_106_41
*1354 FILLER_106_53
*1355 FILLER_106_65
*1356 FILLER_107_1122
*1357 FILLER_107_1134
*1358 FILLER_107_1146
*1359 FILLER_107_1158
*1360 FILLER_107_1170
*1361 FILLER_107_1174
*1362 FILLER_107_1176
*1363 FILLER_107_1188
*1364 FILLER_107_1200
*1365 FILLER_107_1212
*1366 FILLER_107_1224
*1367 FILLER_107_1230
*1368 FILLER_107_1232
*1369 FILLER_107_1244
*1370 FILLER_107_1256
*1371 FILLER_107_1268
*1372 FILLER_107_1280
*1373 FILLER_107_1286
*1374 FILLER_107_1288
*1375 FILLER_107_1300
*1376 FILLER_107_1312
*1377 FILLER_107_1324
*1378 FILLER_107_1336
*1379 FILLER_107_1342
*1380 FILLER_107_1344
*1381 FILLER_107_1356
*1382 FILLER_107_1368
*1383 FILLER_107_15
*1384 FILLER_107_2426
*1385 FILLER_107_2438
*1386 FILLER_107_2450
*1387 FILLER_107_2462
*1388 FILLER_107_2474
*1389 FILLER_107_2478
*1390 FILLER_107_2480
*1391 FILLER_107_2492
*1392 FILLER_107_2504
*1393 FILLER_107_2516
*1394 FILLER_107_2528
*1395 FILLER_107_2534
*1396 FILLER_107_2536
*1397 FILLER_107_2548
*1398 FILLER_107_2560
*1399 FILLER_107_2572
*1400 FILLER_107_2580
*1401 FILLER_107_27
*1402 FILLER_107_3
*1403 FILLER_107_39
*1404 FILLER_107_51
*1405 FILLER_107_55
*1406 FILLER_107_57
*1407 FILLER_107_69
*1408 FILLER_108_1122
*1409 FILLER_108_1134
*1410 FILLER_108_1146
*1411 FILLER_108_1148
*1412 FILLER_108_1160
*1413 FILLER_108_1172
*1414 FILLER_108_1184
*1415 FILLER_108_1196
*1416 FILLER_108_1202
*1417 FILLER_108_1204
*1418 FILLER_108_1216
*1419 FILLER_108_1228
*1420 FILLER_108_1240
*1421 FILLER_108_1252
*1422 FILLER_108_1258
*1423 FILLER_108_1260
*1424 FILLER_108_1272
*1425 FILLER_108_1284
*1426 FILLER_108_1296
*1427 FILLER_108_1308
*1428 FILLER_108_1314
*1429 FILLER_108_1316
*1430 FILLER_108_1328
*1431 FILLER_108_1340
*1432 FILLER_108_1352
*1433 FILLER_108_1364
*1434 FILLER_108_1370
*1435 FILLER_108_1372
*1436 FILLER_108_15
*1437 FILLER_108_2426
*1438 FILLER_108_2438
*1439 FILLER_108_2450
*1440 FILLER_108_2452
*1441 FILLER_108_2464
*1442 FILLER_108_2476
*1443 FILLER_108_2488
*1444 FILLER_108_2500
*1445 FILLER_108_2506
*1446 FILLER_108_2508
*1447 FILLER_108_2520
*1448 FILLER_108_2532
*1449 FILLER_108_2544
*1450 FILLER_108_2556
*1451 FILLER_108_2562
*1452 FILLER_108_2564
*1453 FILLER_108_2576
*1454 FILLER_108_2580
*1455 FILLER_108_27
*1456 FILLER_108_29
*1457 FILLER_108_3
*1458 FILLER_108_41
*1459 FILLER_108_53
*1460 FILLER_108_65
*1461 FILLER_109_1122
*1462 FILLER_109_1134
*1463 FILLER_109_1146
*1464 FILLER_109_1158
*1465 FILLER_109_1170
*1466 FILLER_109_1174
*1467 FILLER_109_1176
*1468 FILLER_109_1188
*1469 FILLER_109_1200
*1470 FILLER_109_1212
*1471 FILLER_109_1224
*1472 FILLER_109_1230