*SPEF "ieee 1481-1999"
*DESIGN "counter"
*DATE "07:27:30 Wednesday March 05, 2025"
*VENDOR "The OpenROAD Project"
*PROGRAM "OpenROAD"
*VERSION "edf00dff99f6c40d67a30c0e22a8191c5d2ed9d6"
*DESIGN_FLOW "NAME_SCOPE LOCAL" "PIN_CAP NONE"
*DIVIDER /
*DELIMITER :
*BUS_DELIMITER []
*T_UNIT 1 NS
*C_UNIT 1 PF
*R_UNIT 1 OHM
*L_UNIT 1 HENRY

*NAME_MAP
*1 addr00[0]
*2 addr00[1]
*3 addr00[2]
*4 addr00[3]
*5 addr00[4]
*6 addr00[5]
*7 addr00[6]
*8 addr00[7]
*9 addr01[0]
*10 addr01[1]
*11 addr01[2]
*12 addr01[3]
*13 addr01[4]
*14 addr01[5]
*15 addr01[6]
*16 addr01[7]
*17 clk
*18 csb00
*19 csb01
*20 din00[0]
*21 din00[10]
*22 din00[11]
*23 din00[12]
*24 din00[13]
*25 din00[14]
*26 din00[15]
*27 din00[1]
*28 din00[2]
*29 din00[3]
*30 din00[4]
*31 din00[5]
*32 din00[6]
*33 din00[7]
*34 din00[8]
*35 din00[9]
*36 din01[0]
*37 din01[10]
*38 din01[11]
*39 din01[12]
*40 din01[13]
*41 din01[14]
*42 din01[15]
*43 din01[1]
*44 din01[2]
*45 din01[3]
*46 din01[4]
*47 din01[5]
*48 din01[6]
*49 din01[7]
*50 din01[8]
*51 din01[9]
*52 rst
*53 sine_out[0]
*54 sine_out[10]
*55 sine_out[11]
*56 sine_out[12]
*57 sine_out[13]
*58 sine_out[14]
*59 sine_out[15]
*60 sine_out[1]
*61 sine_out[2]
*62 sine_out[3]
*63 sine_out[4]
*64 sine_out[5]
*65 sine_out[6]
*66 sine_out[7]
*67 sine_out[8]
*68 sine_out[9]
*71 _000_
*72 _001_
*73 _002_
*74 _003_
*75 _004_
*76 _005_
*77 _006_
*78 _007_
*79 _008_
*80 _009_
*81 _010_
*82 _011_
*83 _012_
*84 _013_
*85 _014_
*86 _015_
*87 _016_
*88 _017_
*89 _018_
*90 _019_
*91 _020_
*92 _021_
*93 _022_
*94 _023_
*95 _024_
*96 _025_
*97 _026_
*98 _027_
*99 _028_
*100 _029_
*101 _030_
*102 _031_
*103 _032_
*104 _033_
*105 _034_
*106 _035_
*107 _036_
*108 _037_
*109 _038_
*110 _039_
*111 _040_
*112 _041_
*113 _042_
*114 _043_
*115 _044_
*116 _045_
*117 _046_
*118 _047_
*119 _048_
*120 _049_
*121 _050_
*122 _051_
*123 _052_
*124 _053_
*125 _054_
*126 _055_
*127 _056_
*128 _057_
*129 _058_
*130 clknet_0_clk
*131 clknet_2_0__leaf_clk
*132 clknet_2_1__leaf_clk
*133 clknet_2_2__leaf_clk
*134 clknet_2_3__leaf_clk
*135 net1
*136 net10
*137 net11
*138 net12
*139 net13
*140 net14
*141 net15
*142 net16
*143 net17
*144 net18
*145 net19
*146 net2
*147 net20
*148 net21
*149 net22
*150 net23
*151 net24
*152 net25
*153 net26
*154 net27
*155 net28
*156 net29
*157 net3
*158 net30
*159 net31
*160 net32
*161 net33
*162 net34
*163 net35
*164 net36
*165 net37
*166 net38
*167 net39
*168 net4
*169 net40
*170 net41
*171 net42
*172 net43
*173 net44
*174 net45
*175 net46
*176 net47
*177 net48
*178 net49
*179 net5
*180 net50
*181 net51
*182 net52
*183 net53
*184 net54
*185 net55
*186 net56
*187 net57
*188 net58
*189 net59
*190 net6
*191 net60
*192 net61
*193 net62
*194 net63
*195 net64
*196 net65
*197 net66
*198 net67
*199 net68
*200 net69
*201 net7
*202 net70
*203 net71
*204 net72
*205 net73
*206 net74
*207 net75
*208 net76
*209 net77
*210 net78
*211 net79
*212 net8
*213 net80
*214 net81
*215 net82
*216 net83
*217 net84
*218 net85
*219 net86
*220 net87
*221 net88
*222 net89
*223 net9
*224 sine_out_temp0\[0\]
*225 sine_out_temp0\[10\]
*226 sine_out_temp0\[11\]
*227 sine_out_temp0\[12\]
*228 sine_out_temp0\[13\]
*229 sine_out_temp0\[14\]
*230 sine_out_temp0\[15\]
*231 sine_out_temp0\[1\]
*232 sine_out_temp0\[2\]
*233 sine_out_temp0\[3\]
*234 sine_out_temp0\[4\]
*235 sine_out_temp0\[5\]
*236 sine_out_temp0\[6\]
*237 sine_out_temp0\[7\]
*238 sine_out_temp0\[8\]
*239 sine_out_temp0\[9\]
*240 sine_out_temp1\[0\]
*241 sine_out_temp1\[10\]
*242 sine_out_temp1\[11\]
*243 sine_out_temp1\[12\]
*244 sine_out_temp1\[13\]
*245 sine_out_temp1\[14\]
*246 sine_out_temp1\[15\]
*247 sine_out_temp1\[1\]
*248 sine_out_temp1\[2\]
*249 sine_out_temp1\[3\]
*250 sine_out_temp1\[4\]
*251 sine_out_temp1\[5\]
*252 sine_out_temp1\[6\]
*253 sine_out_temp1\[7\]
*254 sine_out_temp1\[8\]
*255 sine_out_temp1\[9\]
*256 tcout\[0\]
*257 tcout\[1\]
*258 tcout\[2\]
*259 tcout\[3\]
*260 tcout\[4\]
*261 tcout\[5\]
*262 tcout\[6\]
*263 tcout\[7\]
*264 tcout\[8\]
*265 ANTENNA_1
*266 ANTENNA_2
*267 ANTENNA_3
*268 ANTENNA__061__A
*269 ANTENNA__062__A
*270 ANTENNA__063__A0
*271 ANTENNA__063__A1
*272 ANTENNA__063__S
*273 ANTENNA__064__A0
*274 ANTENNA__064__A1
*275 ANTENNA__064__S
*276 ANTENNA__065__A0
*277 ANTENNA__065__A1
*278 ANTENNA__065__S
*279 ANTENNA__066__A0
*280 ANTENNA__066__A1
*281 ANTENNA__066__S
*282 ANTENNA__067__A0
*283 ANTENNA__067__A1
*284 ANTENNA__067__S
*285 ANTENNA__068__A0
*286 ANTENNA__068__A1
*287 ANTENNA__068__S
*288 ANTENNA__069__A0
*289 ANTENNA__069__A1
*290 ANTENNA__069__S
*291 ANTENNA__069__X
*292 ANTENNA__070__A0
*293 ANTENNA__070__A1
*294 ANTENNA__070__S
*295 ANTENNA__070__X
*296 ANTENNA__071__A0
*297 ANTENNA__071__A1
*298 ANTENNA__071__S
*299 ANTENNA__071__X
*300 ANTENNA__072__A0
*301 ANTENNA__072__A1
*302 ANTENNA__072__S
*303 ANTENNA__072__X
*304 ANTENNA__073__A0
*305 ANTENNA__073__A1
*306 ANTENNA__073__S
*307 ANTENNA__073__X
*308 ANTENNA__074__A0
*309 ANTENNA__074__A1
*310 ANTENNA__074__S
*311 ANTENNA__075__A0
*312 ANTENNA__075__A1
*313 ANTENNA__075__S
*314 ANTENNA__076__A0
*315 ANTENNA__076__A1
*316 ANTENNA__076__S
*317 ANTENNA__077__A0
*318 ANTENNA__077__A1
*319 ANTENNA__077__S
*320 ANTENNA__078__A0
*321 ANTENNA__078__A1
*322 ANTENNA__078__S
*323 ANTENNA__079__A
*324 ANTENNA__079__B
*325 ANTENNA__080__A
*326 ANTENNA__080__B
*327 ANTENNA__080__C
*328 ANTENNA__081__A1
*329 ANTENNA__081__A2
*330 ANTENNA__081__B1
*331 ANTENNA__083__A
*332 ANTENNA__083__B
*333 ANTENNA__083__C
*334 ANTENNA__083__D
*335 ANTENNA__084__A
*336 ANTENNA__086__A
*337 ANTENNA__087__A
*338 ANTENNA__087__B
*339 ANTENNA__088__A1
*340 ANTENNA__088__B1
*341 ANTENNA__090__A
*342 ANTENNA__091__A
*343 ANTENNA__091__B
*344 ANTENNA__092__A
*345 ANTENNA__092__B
*346 ANTENNA__093__A1
*347 ANTENNA__093__A2
*348 ANTENNA__093__A3
*349 ANTENNA__093__B1
*350 ANTENNA__095__A
*351 ANTENNA__100__A
*352 ANTENNA__101__A
*353 ANTENNA__102__A
*354 ANTENNA__103__A
*355 ANTENNA__104__A
*356 ANTENNA__111__A
*357 ANTENNA__112__A
*358 ANTENNA__113__A
*359 ANTENNA__114__A
*360 ANTENNA__115__A
*361 ANTENNA__116__A
*362 ANTENNA__117__A
*363 ANTENNA__118__A
*364 ANTENNA__119__A
*365 ANTENNA__120__CLK
*366 ANTENNA__120__D
*367 ANTENNA__120__Q
*368 ANTENNA__121__CLK
*369 ANTENNA__121__D
*370 ANTENNA__121__Q
*371 ANTENNA__122__CLK
*372 ANTENNA__122__D
*373 ANTENNA__122__Q
*374 ANTENNA__123__CLK
*375 ANTENNA__123__Q
*376 ANTENNA__124__CLK
*377 ANTENNA__124__Q
*378 ANTENNA__125__CLK
*379 ANTENNA__125__Q
*380 ANTENNA__126__CLK
*381 ANTENNA__127__CLK
*382 ANTENNA__128__CLK
*383 ANTENNA__128__Q
*384 ANTENNA__129__CLK
*385 ANTENNA__129__Q
*386 ANTENNA__130__CLK
*387 ANTENNA__130__Q
*388 ANTENNA__131__CLK
*389 ANTENNA__131__Q
*390 ANTENNA__132__CLK
*391 ANTENNA__132__Q
*392 ANTENNA__133__CLK
*393 ANTENNA__133__Q
*394 ANTENNA__134__CLK
*395 ANTENNA__134__Q
*396 ANTENNA__135__CLK
*397 ANTENNA__135__Q
*398 ANTENNA__136__CLK
*399 ANTENNA__137__CLK
*400 ANTENNA__137__Q
*401 ANTENNA__138__CLK
*402 ANTENNA__138__Q
*403 ANTENNA__139__CLK
*404 ANTENNA__139__Q
*405 ANTENNA__140__CLK
*406 ANTENNA__140__Q
*407 ANTENNA__141__CLK
*408 ANTENNA__141__Q
*409 ANTENNA__142__CLK
*410 ANTENNA__142__Q
*411 ANTENNA__143__CLK
*412 ANTENNA__143__D
*413 ANTENNA__143__Q
*414 ANTENNA__144__CLK
*415 ANTENNA__144__D
*416 ANTENNA__144__Q
*417 ANTENNA_clkbuf_0_clk_A
*418 ANTENNA_clkbuf_0_clk_X
*419 ANTENNA_clkbuf_2_0__f_clk_A
*420 ANTENNA_clkbuf_2_0__f_clk_X
*421 ANTENNA_clkbuf_2_1__f_clk_A
*422 ANTENNA_clkbuf_2_1__f_clk_X
*423 ANTENNA_clkbuf_2_2__f_clk_A
*424 ANTENNA_clkbuf_2_2__f_clk_X
*425 ANTENNA_clkbuf_2_3__f_clk_A
*426 ANTENNA_clkbuf_2_3__f_clk_X
*427 ANTENNA_clkload0_A
*428 ANTENNA_clkload1_A
*429 ANTENNA_clkload2_A
*430 ANTENNA_fanout83_A
*431 ANTENNA_fanout83_X
*432 ANTENNA_fanout84_X
*433 ANTENNA_fanout85_A
*434 ANTENNA_fanout86_A
*435 ANTENNA_fanout86_X
*436 ANTENNA_fanout87_A
*437 ANTENNA_fanout87_X
*438 ANTENNA_input10_A
*439 ANTENNA_input10_X
*440 ANTENNA_input11_A
*441 ANTENNA_input12_A
*442 ANTENNA_input13_A
*443 ANTENNA_input14_A
*444 ANTENNA_input15_A
*445 ANTENNA_input16_A
*446 ANTENNA_input17_A
*447 ANTENNA_input17_X
*448 ANTENNA_input18_A
*449 ANTENNA_input19_A
*450 ANTENNA_input19_X
*451 ANTENNA_input1_A
*452 ANTENNA_input1_X
*453 ANTENNA_input20_A
*454 ANTENNA_input21_A
*455 ANTENNA_input22_A
*456 ANTENNA_input23_A
*457 ANTENNA_input24_A
*458 ANTENNA_input25_A
*459 ANTENNA_input26_A
*460 ANTENNA_input26_X
*461 ANTENNA_input27_A
*462 ANTENNA_input27_X
*463 ANTENNA_input28_A
*464 ANTENNA_input28_X
*465 ANTENNA_input29_A
*466 ANTENNA_input29_X
*467 ANTENNA_input2_A
*468 ANTENNA_input2_X
*469 ANTENNA_input30_A
*470 ANTENNA_input31_A
*471 ANTENNA_input32_A
*472 ANTENNA_input33_A
*473 ANTENNA_input34_A
*474 ANTENNA_input35_A
*475 ANTENNA_input35_X
*476 ANTENNA_input36_A
*477 ANTENNA_input36_X
*478 ANTENNA_input37_A
*479 ANTENNA_input37_X
*480 ANTENNA_input38_A
*481 ANTENNA_input38_X
*482 ANTENNA_input39_A
*483 ANTENNA_input39_X
*484 ANTENNA_input3_A
*485 ANTENNA_input3_X
*486 ANTENNA_input40_A
*487 ANTENNA_input40_X
*488 ANTENNA_input41_A
*489 ANTENNA_input41_X
*490 ANTENNA_input42_A
*491 ANTENNA_input42_X
*492 ANTENNA_input43_A
*493 ANTENNA_input43_X
*494 ANTENNA_input44_A
*495 ANTENNA_input44_X
*496 ANTENNA_input45_A
*497 ANTENNA_input45_X
*498 ANTENNA_input46_A
*499 ANTENNA_input46_X
*500 ANTENNA_input47_A
*501 ANTENNA_input47_X
*502 ANTENNA_input48_A
*503 ANTENNA_input48_X
*504 ANTENNA_input49_A
*505 ANTENNA_input49_X
*506 ANTENNA_input4_A
*507 ANTENNA_input4_X
*508 ANTENNA_input50_A
*509 ANTENNA_input50_X
*510 ANTENNA_input51_A
*511 ANTENNA_input51_X
*512 ANTENNA_input5_A
*513 ANTENNA_input5_X
*514 ANTENNA_input6_A
*515 ANTENNA_input6_X
*516 ANTENNA_input7_A
*517 ANTENNA_input7_X
*518 ANTENNA_input8_A
*519 ANTENNA_input8_X
*520 ANTENNA_input9_A
*521 ANTENNA_input9_X
*522 ANTENNA_mem_i0_addr0\[0\]
*523 ANTENNA_mem_i0_addr0\[1\]
*524 ANTENNA_mem_i0_addr0\[2\]
*525 ANTENNA_mem_i0_addr0\[3\]
*526 ANTENNA_mem_i0_addr0\[4\]
*527 ANTENNA_mem_i0_addr0\[5\]
*528 ANTENNA_mem_i0_addr0\[6\]
*529 ANTENNA_mem_i0_addr0\[7\]
*530 ANTENNA_mem_i0_addr1\[0\]
*531 ANTENNA_mem_i0_addr1\[1\]
*532 ANTENNA_mem_i0_addr1\[2\]
*533 ANTENNA_mem_i0_addr1\[3\]
*534 ANTENNA_mem_i0_addr1\[4\]
*535 ANTENNA_mem_i0_addr1\[5\]
*536 ANTENNA_mem_i0_addr1\[6\]
*537 ANTENNA_mem_i0_addr1\[7\]
*538 ANTENNA_mem_i0_clk0
*539 ANTENNA_mem_i0_clk1
*540 ANTENNA_mem_i0_csb0
*541 ANTENNA_mem_i0_din0\[0\]
*542 ANTENNA_mem_i0_din0\[1\]
*543 ANTENNA_mem_i0_din0\[2\]
*544 ANTENNA_mem_i0_din0\[3\]
*545 ANTENNA_mem_i0_din0\[4\]
*546 ANTENNA_mem_i0_dout1\[0\]
*547 ANTENNA_mem_i0_dout1\[10\]
*548 ANTENNA_mem_i0_dout1\[11\]
*549 ANTENNA_mem_i0_dout1\[12\]
*550 ANTENNA_mem_i0_dout1\[13\]
*551 ANTENNA_mem_i0_dout1\[14\]
*552 ANTENNA_mem_i0_dout1\[15\]
*553 ANTENNA_mem_i0_dout1\[1\]
*554 ANTENNA_mem_i0_dout1\[2\]
*555 ANTENNA_mem_i0_dout1\[3\]
*556 ANTENNA_mem_i0_dout1\[4\]
*557 ANTENNA_mem_i0_dout1\[5\]
*558 ANTENNA_mem_i0_dout1\[6\]
*559 ANTENNA_mem_i0_dout1\[7\]
*560 ANTENNA_mem_i0_dout1\[8\]
*561 ANTENNA_mem_i0_dout1\[9\]
*562 ANTENNA_mem_i1_addr0\[0\]
*563 ANTENNA_mem_i1_addr0\[1\]
*564 ANTENNA_mem_i1_addr1\[0\]
*565 ANTENNA_mem_i1_addr1\[1\]
*566 ANTENNA_mem_i1_addr1\[2\]
*567 ANTENNA_mem_i1_addr1\[3\]
*568 ANTENNA_mem_i1_addr1\[4\]
*569 ANTENNA_mem_i1_addr1\[5\]
*570 ANTENNA_mem_i1_addr1\[6\]
*571 ANTENNA_mem_i1_addr1\[7\]
*572 ANTENNA_mem_i1_clk0
*573 ANTENNA_mem_i1_clk1
*574 ANTENNA_mem_i1_din0\[0\]
*575 ANTENNA_mem_i1_din0\[10\]
*576 ANTENNA_mem_i1_din0\[11\]
*577 ANTENNA_mem_i1_din0\[12\]
*578 ANTENNA_mem_i1_din0\[13\]
*579 ANTENNA_mem_i1_din0\[14\]
*580 ANTENNA_mem_i1_din0\[15\]
*581 ANTENNA_mem_i1_din0\[1\]
*582 ANTENNA_mem_i1_din0\[2\]
*583 ANTENNA_mem_i1_din0\[3\]
*584 ANTENNA_mem_i1_din0\[4\]
*585 ANTENNA_mem_i1_din0\[5\]
*586 ANTENNA_mem_i1_din0\[6\]
*587 ANTENNA_mem_i1_din0\[7\]
*588 ANTENNA_mem_i1_din0\[8\]
*589 ANTENNA_mem_i1_din0\[9\]
*590 ANTENNA_mem_i1_dout1\[0\]
*591 ANTENNA_output52_A
*592 ANTENNA_output53_A
*593 ANTENNA_output54_A
*594 ANTENNA_output55_A
*595 ANTENNA_output56_A
*596 ANTENNA_output59_A
*597 ANTENNA_output60_A
*598 ANTENNA_output61_A
*599 ANTENNA_output62_A
*600 ANTENNA_output63_A
*601 ANTENNA_output64_A
*602 ANTENNA_output65_A
*603 ANTENNA_output66_A
*604 ANTENNA_output67_A
*605 ANTENNA_wire68_X
*606 ANTENNA_wire69_X
*607 ANTENNA_wire70_X
*608 ANTENNA_wire71_X
*609 ANTENNA_wire72_X
*610 ANTENNA_wire73_X
*611 ANTENNA_wire74_X
*612 ANTENNA_wire75_X
*613 ANTENNA_wire76_X
*614 ANTENNA_wire77_X
*615 ANTENNA_wire78_X
*616 ANTENNA_wire79_X
*617 ANTENNA_wire80_X
*618 ANTENNA_wire81_X
*619 ANTENNA_wire82_X
*620 FILLER_0_1005
*621 FILLER_0_1009
*622 FILLER_0_1021
*623 FILLER_0_1033
*624 FILLER_0_1037
*625 FILLER_0_1049
*626 FILLER_0_1061
*627 FILLER_0_1065
*628 FILLER_0_1077
*629 FILLER_0_1089
*630 FILLER_0_109
*631 FILLER_0_1093
*632 FILLER_0_1105
*633 FILLER_0_1117
*634 FILLER_0_1121
*635 FILLER_0_113
*636 FILLER_0_1133
*637 FILLER_0_1145
*638 FILLER_0_1149
*639 FILLER_0_1161
*640 FILLER_0_1167
*641 FILLER_0_125
*642 FILLER_0_137
*643 FILLER_0_141
*644 FILLER_0_15
*645 FILLER_0_153
*646 FILLER_0_165
*647 FILLER_0_169
*648 FILLER_0_181
*649 FILLER_0_193
*650 FILLER_0_197
*651 FILLER_0_209
*652 FILLER_0_221
*653 FILLER_0_225
*654 FILLER_0_237
*655 FILLER_0_249
*656 FILLER_0_253
*657 FILLER_0_265
*658 FILLER_0_27
*659 FILLER_0_277
*660 FILLER_0_281
*661 FILLER_0_29
*662 FILLER_0_293
*663 FILLER_0_3
*664 FILLER_0_305
*665 FILLER_0_309
*666 FILLER_0_321
*667 FILLER_0_329
*668 FILLER_0_335
*669 FILLER_0_337
*670 FILLER_0_343
*671 FILLER_0_349
*672 FILLER_0_357
*673 FILLER_0_363
*674 FILLER_0_365
*675 FILLER_0_371
*676 FILLER_0_377
*677 FILLER_0_384
*678 FILLER_0_398
*679 FILLER_0_406
*680 FILLER_0_41
*681 FILLER_0_412
*682 FILLER_0_426
*683 FILLER_0_434
*684 FILLER_0_440
*685 FILLER_0_447
*686 FILLER_0_449
*687 FILLER_0_455
*688 FILLER_0_461
*689 FILLER_0_473
*690 FILLER_0_477
*691 FILLER_0_489
*692 FILLER_0_501
*693 FILLER_0_505
*694 FILLER_0_517
*695 FILLER_0_529
*696 FILLER_0_53
*697 FILLER_0_533
*698 FILLER_0_545
*699 FILLER_0_557
*700 FILLER_0_561
*701 FILLER_0_57
*702 FILLER_0_573
*703 FILLER_0_585
*704 FILLER_0_589
*705 FILLER_0_601
*706 FILLER_0_613
*707 FILLER_0_617
*708 FILLER_0_629
*709 FILLER_0_641
*710 FILLER_0_645
*711 FILLER_0_657
*712 FILLER_0_669
*713 FILLER_0_673
*714 FILLER_0_685
*715 FILLER_0_69
*716 FILLER_0_697
*717 FILLER_0_701
*718 FILLER_0_713
*719 FILLER_0_725
*720 FILLER_0_729
*721 FILLER_0_741
*722 FILLER_0_753
*723 FILLER_0_757
*724 FILLER_0_769
*725 FILLER_0_781
*726 FILLER_0_785
*727 FILLER_0_797
*728 FILLER_0_809
*729 FILLER_0_81
*730 FILLER_0_813
*731 FILLER_0_825
*732 FILLER_0_837
*733 FILLER_0_841
*734 FILLER_0_85
*735 FILLER_0_853
*736 FILLER_0_865
*737 FILLER_0_869
*738 FILLER_0_881
*739 FILLER_0_893
*740 FILLER_0_897
*741 FILLER_0_909
*742 FILLER_0_921
*743 FILLER_0_925
*744 FILLER_0_937
*745 FILLER_0_949
*746 FILLER_0_953
*747 FILLER_0_965
*748 FILLER_0_97
*749 FILLER_0_977
*750 FILLER_0_981
*751 FILLER_0_993
*752 FILLER_100_1122
*753 FILLER_100_1134
*754 FILLER_100_1146
*755 FILLER_100_1148
*756 FILLER_100_1160
*757 FILLER_100_15
*758 FILLER_100_27
*759 FILLER_100_29
*760 FILLER_100_3
*761 FILLER_100_41
*762 FILLER_100_53
*763 FILLER_100_65
*764 FILLER_101_1122
*765 FILLER_101_1134
*766 FILLER_101_1146
*767 FILLER_101_1158
*768 FILLER_101_1166
*769 FILLER_101_15
*770 FILLER_101_27
*771 FILLER_101_3
*772 FILLER_101_39
*773 FILLER_101_51
*774 FILLER_101_55
*775 FILLER_101_57
*776 FILLER_101_69
*777 FILLER_102_1122
*778 FILLER_102_1134
*779 FILLER_102_1146
*780 FILLER_102_1148
*781 FILLER_102_1160
*782 FILLER_102_15
*783 FILLER_102_27
*784 FILLER_102_29
*785 FILLER_102_3
*786 FILLER_102_41
*787 FILLER_102_53
*788 FILLER_102_65
*789 FILLER_103_1122
*790 FILLER_103_1134
*791 FILLER_103_1146
*792 FILLER_103_1158
*793 FILLER_103_1166
*794 FILLER_103_15
*795 FILLER_103_27
*796 FILLER_103_3
*797 FILLER_103_39
*798 FILLER_103_51
*799 FILLER_103_55
*800 FILLER_103_57
*801 FILLER_103_69
*802 FILLER_104_1122
*803 FILLER_104_1134
*804 FILLER_104_1146
*805 FILLER_104_1148
*806 FILLER_104_1160
*807 FILLER_104_15
*808 FILLER_104_27
*809 FILLER_104_29
*810 FILLER_104_3
*811 FILLER_104_41
*812 FILLER_104_53
*813 FILLER_104_65
*814 FILLER_105_1122
*815 FILLER_105_1134
*816 FILLER_105_1146
*817 FILLER_105_1158
*818 FILLER_105_1166
*819 FILLER_105_15
*820 FILLER_105_27
*821 FILLER_105_3
*822 FILLER_105_39
*823 FILLER_105_51
*824 FILLER_105_55
*825 FILLER_105_57
*826 FILLER_106_1125
*827 FILLER_106_1137
*828 FILLER_106_1145
*829 FILLER_106_1148
*830 FILLER_106_1160
*831 FILLER_106_15
*832 FILLER_106_27
*833 FILLER_106_29
*834 FILLER_106_3
*835 FILLER_106_41
*836 FILLER_106_49
*837 FILLER_107_1122
*838 FILLER_107_1134
*839 FILLER_107_1146
*840 FILLER_107_1158
*841 FILLER_107_1166
*842 FILLER_107_15
*843 FILLER_107_27
*844 FILLER_107_3
*845 FILLER_107_39
*846 FILLER_107_51
*847 FILLER_107_55
*848 FILLER_107_57
*849 FILLER_107_65
*850 FILLER_108_1122
*851 FILLER_108_1134
*852 FILLER_108_1146
*853 FILLER_108_1148
*854 FILLER_108_1160
*855 FILLER_108_15
*856 FILLER_108_27
*857 FILLER_108_29
*858 FILLER_108_3
*859 FILLER_108_41
*860 FILLER_108_53
*861 FILLER_108_65
*862 FILLER_109_1122
*863 FILLER_109_1134
*864 FILLER_109_1146
*865 FILLER_109_1158
*866 FILLER_109_1166
*867 FILLER_109_15
*868 FILLER_109_27
*869 FILLER_109_3
*870 FILLER_109_39
*871 FILLER_109_51
*872 FILLER_109_55
*873 FILLER_109_57
*874 FILLER_109_69
*875 FILLER_10_1122
*876 FILLER_10_1134
*877 FILLER_10_1146
*878 FILLER_10_1148
*879 FILLER_10_1160
*880 FILLER_10_13
*881 FILLER_10_25
*882 FILLER_10_29
*883 FILLER_10_41
*884 FILLER_10_53
*885 FILLER_10_65
*886 FILLER_110_1122
*887 FILLER_110_1134
*888 FILLER_110_1146
*889 FILLER_110_1148
*890 FILLER_110_1160
*891 FILLER_110_15
*892 FILLER_110_27
*893 FILLER_110_29
*894 FILLER_110_3
*895 FILLER_110_41
*896 FILLER_110_53
*897 FILLER_110_65
*898 FILLER_111_1122
*899 FILLER_111_1134
*900 FILLER_111_1146
*901 FILLER_111_1158
*902 FILLER_111_1166
*903 FILLER_111_15
*904 FILLER_111_27
*905 FILLER_111_3
*906 FILLER_111_39
*907 FILLER_111_51
*908 FILLER_111_55
*909 FILLER_111_57
*910 FILLER_111_69
*911 FILLER_112_1122
*912 FILLER_112_1134
*913 FILLER_112_1146
*914 FILLER_112_1148
*915 FILLER_112_1160
*916 FILLER_112_15
*917 FILLER_112_27
*918 FILLER_112_29
*919 FILLER_112_3
*920 FILLER_112_41
*921 FILLER_112_53
*922 FILLER_112_65
*923 FILLER_113_1122
*924 FILLER_113_1134
*925 FILLER_113_1146
*926 FILLER_113_1158
*927 FILLER_113_1166
*928 FILLER_113_15
*929 FILLER_113_27
*930 FILLER_113_3
*931 FILLER_113_39
*932 FILLER_113_51
*933 FILLER_113_55
*934 FILLER_113_57
*935 FILLER_113_69
*936 FILLER_114_1122
*937 FILLER_114_1134
*938 FILLER_114_1146
*939 FILLER_114_1148
*940 FILLER_114_1160
*941 FILLER_114_15
*942 FILLER_114_27
*943 FILLER_114_29
*944 FILLER_114_3
*945 FILLER_114_41
*946 FILLER_114_53
*947 FILLER_114_65
*948 FILLER_115_1122
*949 FILLER_115_1134
*950 FILLER_115_1146
*951 FILLER_115_1158
*952 FILLER_115_1166
*953 FILLER_115_15
*954 FILLER_115_27
*955 FILLER_115_3
*956 FILLER_115_39
*957 FILLER_115_51
*958 FILLER_115_55
*959 FILLER_115_57
*960 FILLER_115_69
*961 FILLER_116_1122
*962 FILLER_116_1134
*963 FILLER_116_1146
*964 FILLER_116_1148
*965 FILLER_116_1160
*966 FILLER_116_15
*967 FILLER_116_27
*968 FILLER_116_29
*969 FILLER_116_3
*970 FILLER_116_41
*971 FILLER_116_53
*972 FILLER_116_65
*973 FILLER_117_1006
*974 FILLER_117_1009
*975 FILLER_117_1035
*976 FILLER_117_1041
*977 FILLER_117_1053
*978 FILLER_117_1061
*979 FILLER_117_1065
*980 FILLER_117_1077
*981 FILLER_117_1089
*982 FILLER_117_109
*983 FILLER_117_1093
*984 FILLER_117_1105
*985 FILLER_117_1117
*986 FILLER_117_1121
*987 FILLER_117_113
*988 FILLER_117_1133
*989 FILLER_117_1145
*990 FILLER_117_1149
*991 FILLER_117_1161
*992 FILLER_117_1167
*993 FILLER_117_125
*994 FILLER_117_137
*995 FILLER_117_141
*996 FILLER_117_15
*997 FILLER_117_153
*998 FILLER_117_165
*999 FILLER_117_169
*1000 FILLER_117_181
*1001 FILLER_117_193
*1002 FILLER_117_197
*1003 FILLER_117_209
*1004 FILLER_117_221
*1005 FILLER_117_225
*1006 FILLER_117_237
*1007 FILLER_117_249
*1008 FILLER_117_253
*1009 FILLER_117_265
*1010 FILLER_117_27
*1011 FILLER_117_277
*1012 FILLER_117_281
*1013 FILLER_117_29
*1014 FILLER_117_293
*1015 FILLER_117_3
*1016 FILLER_117_305
*1017 FILLER_117_309
*1018 FILLER_117_321
*1019 FILLER_117_333
*1020 FILLER_117_337
*1021 FILLER_117_349
*1022 FILLER_117_361
*1023 FILLER_117_365
*1024 FILLER_117_377
*1025 FILLER_117_382
*1026 FILLER_117_390
*1027 FILLER_117_393
*1028 FILLER_117_405
*1029 FILLER_117_41
*1030 FILLER_117_410
*1031 FILLER_117_418
*1032 FILLER_117_421
*1033 FILLER_117_433
*1034 FILLER_117_437
*1035 FILLER_117_445
*1036 FILLER_117_449
*1037 FILLER_117_461
*1038 FILLER_117_464
*1039 FILLER_117_477
*1040 FILLER_117_491
*1041 FILLER_117_503
*1042 FILLER_117_505
*1043 FILLER_117_513
*1044 FILLER_117_518
*1045 FILLER_117_53
*1046 FILLER_117_530
*1047 FILLER_117_533
*1048 FILLER_117_541
*1049 FILLER_117_545
*1050 FILLER_117_557
*1051 FILLER_117_561
*1052 FILLER_117_569
*1053 FILLER_117_57
*1054 FILLER_117_572
*1055 FILLER_117_584
*1056 FILLER_117_589
*1057 FILLER_117_597
*1058 FILLER_117_600
*1059 FILLER_117_612
*1060 FILLER_117_617
*1061 FILLER_117_627
*1062 FILLER_117_639
*1063 FILLER_117_643
*1064 FILLER_117_645
*1065 FILLER_117_651
*1066 FILLER_117_654
*1067 FILLER_117_666
*1068 FILLER_117_673
*1069 FILLER_117_681
*1070 FILLER_117_69
*1071 FILLER_117_693
*1072 FILLER_117_699
*1073 FILLER_117_701
*1074 FILLER_117_705
*1075 FILLER_117_708
*1076 FILLER_117_720
*1077 FILLER_117_729
*1078 FILLER_117_735
*1079 FILLER_117_747
*1080 FILLER_117_755
*1081 FILLER_117_757
*1082 FILLER_117_762
*1083 FILLER_117_774
*1084 FILLER_117_782
*1085 FILLER_117_785
*1086 FILLER_117_789
*1087 FILLER_117_801
*1088 FILLER_117_809
*1089 FILLER_117_81
*1090 FILLER_117_813
*1091 FILLER_117_825
*1092 FILLER_117_837
*1093 FILLER_117_841
*1094 FILLER_117_85
*1095 FILLER_117_853
*1096 FILLER_117_865
*1097 FILLER_117_869
*1098 FILLER_117_881
*1099 FILLER_117_893
*1100 FILLER_117_897
*1101 FILLER_117_909
*1102 FILLER_117_913
*1103 FILLER_117_920
*1104 FILLER_117_97
*1105 FILLER_117_979
*1106 FILLER_117_994
*1107 FILLER_118_1011
*1108 FILLER_118_1023
*1109 FILLER_118_1035
*1110 FILLER_118_1037
*1111 FILLER_118_1049
*1112 FILLER_118_1061
*1113 FILLER_118_1073
*1114 FILLER_118_1085
*1115 FILLER_118_109
*1116 FILLER_118_1091
*1117 FILLER_118_1093
*1118 FILLER_118_1105
*1119 FILLER_118_1117
*1120 FILLER_118_1129
*1121 FILLER_118_1141
*1122 FILLER_118_1147
*1123 FILLER_118_1149
*1124 FILLER_118_1161
*1125 FILLER_118_1167
*1126 FILLER_118_121
*1127 FILLER_118_133
*1128 FILLER_118_139
*1129 FILLER_118_141
*1130 FILLER_118_15
*1131 FILLER_118_153
*1132 FILLER_118_165
*1133 FILLER_118_177
*1134 FILLER_118_189
*1135 FILLER_118_195
*1136 FILLER_118_197
*1137 FILLER_118_209
*1138 FILLER_118_221
*1139 FILLER_118_233
*1140 FILLER_118_245
*1141 FILLER_118_251
*1142 FILLER_118_253
*1143 FILLER_118_265
*1144 FILLER_118_27
*1145 FILLER_118_277
*1146 FILLER_118_289
*1147 FILLER_118_29
*1148 FILLER_118_3
*1149 FILLER_118_301
*1150 FILLER_118_307
*1151 FILLER_118_309
*1152 FILLER_118_321
*1153 FILLER_118_333
*1154 FILLER_118_345
*1155 FILLER_118_357
*1156 FILLER_118_363
*1157 FILLER_118_365
*1158 FILLER_118_377
*1159 FILLER_118_389
*1160 FILLER_118_401
*1161 FILLER_118_41
*1162 FILLER_118_413
*1163 FILLER_118_419
*1164 FILLER_118_421
*1165 FILLER_118_433
*1166 FILLER_118_445
*1167 FILLER_118_457
*1168 FILLER_118_469
*1169 FILLER_118_475
*1170 FILLER_118_477
*1171 FILLER_118_489
*1172 FILLER_118_501
*1173 FILLER_118_513
*1174 FILLER_118_525
*1175 FILLER_118_53
*1176 FILLER_118_531
*1177 FILLER_118_533
*1178 FILLER_118_545
*1179 FILLER_118_557
*1180 FILLER_118_569
*1181 FILLER_118_581
*1182 FILLER_118_587
*1183 FILLER_118_589
*1184 FILLER_118_601
*1185 FILLER_118_613
*1186 FILLER_118_625
*1187 FILLER_118_637
*1188 FILLER_118_643
*1189 FILLER_118_645
*1190 FILLER_118_65
*1191 FILLER_118_657
*1192 FILLER_118_669
*1193 FILLER_118_681
*1194 FILLER_118_693
*1195 FILLER_118_699
*1196 FILLER_118_701
*1197 FILLER_118_713
*1198 FILLER_118_725
*1199 FILLER_118_737
*1200 FILLER_118_749
*1201 FILLER_118_755
*1202 FILLER_118_757
*1203 FILLER_118_769
*1204 FILLER_118_77
*1205 FILLER_118_781
*1206 FILLER_118_793
*1207 FILLER_118_805
*1208 FILLER_118_811
*1209 FILLER_118_813
*1210 FILLER_118_825
*1211 FILLER_118_83
*1212 FILLER_118_837
*1213 FILLER_118_849
*1214 FILLER_118_85
*1215 FILLER_118_861
*1216 FILLER_118_867
*1217 FILLER_118_869
*1218 FILLER_118_881
*1219 FILLER_118_893
*1220 FILLER_118_927
*1221 FILLER_118_935
*1222 FILLER_118_97
*1223 FILLER_118_979
*1224 FILLER_118_987
*1225 FILLER_118_999
*1226 FILLER_119_1005
*1227 FILLER_119_1009
*1228 FILLER_119_1021
*1229 FILLER_119_1033
*1230 FILLER_119_1045
*1231 FILLER_119_105
*1232 FILLER_119_1057
*1233 FILLER_119_1063
*1234 FILLER_119_1065
*1235 FILLER_119_1077
*1236 FILLER_119_1089
*1237 FILLER_119_1101
*1238 FILLER_119_111
*1239 FILLER_119_1113
*1240 FILLER_119_1119
*1241 FILLER_119_1121
*1242 FILLER_119_113
*1243 FILLER_119_1133
*1244 FILLER_119_1145
*1245 FILLER_119_1157
*1246 FILLER_119_1165
*1247 FILLER_119_125
*1248 FILLER_119_137
*1249 FILLER_119_149
*1250 FILLER_119_15
*1251 FILLER_119_161
*1252 FILLER_119_167
*1253 FILLER_119_169
*1254 FILLER_119_181
*1255 FILLER_119_193
*1256 FILLER_119_205
*1257 FILLER_119_217
*1258 FILLER_119_223
*1259 FILLER_119_225
*1260 FILLER_119_237
*1261 FILLER_119_249
*1262 FILLER_119_261
*1263 FILLER_119_27
*1264 FILLER_119_273
*1265 FILLER_119_279
*1266 FILLER_119_281
*1267 FILLER_119_293
*1268 FILLER_119_3
*1269 FILLER_119_305
*1270 FILLER_119_317
*1271 FILLER_119_329
*1272 FILLER_119_335
*1273 FILLER_119_337
*1274 FILLER_119_349
*1275 FILLER_119_361
*1276 FILLER_119_373
*1277 FILLER_119_385
*1278 FILLER_119_39
*1279 FILLER_119_391
*1280 FILLER_119_393
*1281 FILLER_119_405
*1282 FILLER_119_417
*1283 FILLER_119_429
*1284 FILLER_119_441
*1285 FILLER_119_447
*1286 FILLER_119_449
*1287 FILLER_119_461
*1288 FILLER_119_473
*1289 FILLER_119_485
*1290 FILLER_119_497
*1291 FILLER_119_503
*1292 FILLER_119_505
*1293 FILLER_119_51
*1294 FILLER_119_517
*1295 FILLER_119_529
*1296 FILLER_119_541
*1297 FILLER_119_55
*1298 FILLER_119_553
*1299 FILLER_119_559
*1300 FILLER_119_561
*1301 FILLER_119_57
*1302 FILLER_119_573
*1303 FILLER_119_585
*1304 FILLER_119_597
*1305 FILLER_119_609
*1306 FILLER_119_615
*1307 FILLER_119_617
*1308 FILLER_119_629
*1309 FILLER_119_641
*1310 FILLER_119_653
*1311 FILLER_119_665
*1312 FILLER_119_671
*1313 FILLER_119_673
*1314 FILLER_119_685
*1315 FILLER_119_69
*1316 FILLER_119_697
*1317 FILLER_119_709
*1318 FILLER_119_721
*1319 FILLER_119_727
*1320 FILLER_119_729
*1321 FILLER_119_741
*1322 FILLER_119_753
*1323 FILLER_119_765
*1324 FILLER_119_777
*1325 FILLER_119_783
*1326 FILLER_119_785
*1327 FILLER_119_797
*1328 FILLER_119_809
*1329 FILLER_119_81
*1330 FILLER_119_821
*1331 FILLER_119_833
*1332 FILLER_119_839
*1333 FILLER_119_841
*1334 FILLER_119_853
*1335 FILLER_119_865
*1336 FILLER_119_877
*1337 FILLER_119_889
*1338 FILLER_119_895
*1339 FILLER_119_897
*1340 FILLER_119_901
*1341 FILLER_119_908
*1342 FILLER_119_920
*1343 FILLER_119_928
*1344 FILLER_119_93
*1345 FILLER_119_993
*1346 FILLER_11_1122
*1347 FILLER_11_1134
*1348 FILLER_11_1146
*1349 FILLER_11_1158
*1350 FILLER_11_1166
*1351 FILLER_11_15
*1352 FILLER_11_27
*1353 FILLER_11_39
*1354 FILLER_11_51
*1355 FILLER_11_55
*1356 FILLER_11_57
*1357 FILLER_11_69
*1358 FILLER_120_1005
*1359 FILLER_120_1017
*1360 FILLER_120_1029
*1361 FILLER_120_1035
*1362 FILLER_120_1037
*1363 FILLER_120_1049
*1364 FILLER_120_1061
*1365 FILLER_120_1073
*1366 FILLER_120_1085
*1367 FILLER_120_109
*1368 FILLER_120_1091
*1369 FILLER_120_1093
*1370 FILLER_120_1105
*1371 FILLER_120_1117
*1372 FILLER_120_1129
*1373 FILLER_120_1141
*1374 FILLER_120_1147
*1375 FILLER_120_1149
*1376 FILLER_120_121
*1377 FILLER_120_133
*1378 FILLER_120_139
*1379 FILLER_120_141
*1380 FILLER_120_15
*1381 FILLER_120_153
*1382 FILLER_120_165
*1383 FILLER_120_177
*1384 FILLER_120_189
*1385 FILLER_120_195
*1386 FILLER_120_197
*1387 FILLER_120_209
*1388 FILLER_120_221
*1389 FILLER_120_233
*1390 FILLER_120_245
*1391 FILLER_120_251
*1392 FILLER_120_253
*1393 FILLER_120_265
*1394 FILLER_120_27
*1395 FILLER_120_277
*1396 FILLER_120_289
*1397 FILLER_120_29
*1398 FILLER_120_3
*1399 FILLER_120_301
*1400 FILLER_120_307
*1401 FILLER_120_309
*1402 FILLER_120_321
*1403 FILLER_120_333
*1404 FILLER_120_345
*1405 FILLER_120_357
*1406 FILLER_120_363
*1407 FILLER_120_365
*1408 FILLER_120_377
*1409 FILLER_120_389
*1410 FILLER_120_401
*1411 FILLER_120_41
*1412 FILLER_120_413
*1413 FILLER_120_419
*1414 FILLER_120_421
*1415 FILLER_120_433
*1416 FILLER_120_445
*1417 FILLER_120_457
*1418 FILLER_120_469
*1419 FILLER_120_475
*1420 FILLER_120_477
*1421 FILLER_120_489
*1422 FILLER_120_501
*1423 FILLER_120_513
*1424 FILLER_120_525
*1425 FILLER_120_53
*1426 FILLER_120_531
*1427 FILLER_120_533
*1428 FILLER_120_545
*1429 FILLER_120_557
*1430 FILLER_120_569
*1431 FILLER_120_581
*1432 FILLER_120_587
*1433 FILLER_120_589
*1434 FILLER_120_601
*1435 FILLER_120_613
*1436 FILLER_120_625
*1437 FILLER_120_637
*1438 FILLER_120_643
*1439 FILLER_120_645
*1440 FILLER_120_65
*1441 FILLER_120_657
*1442 FILLER_120_669
*1443 FILLER_120_681
*1444 FILLER_120_693
*1445 FILLER_120_699
*1446 FILLER_120_701
*1447 FILLER_120_713
*1448 FILLER_120_725
*1449 FILLER_120_737
*1450 FILLER_120_749
*1451 FILLER_120_755
*1452 FILLER_120_757
*1453 FILLER_120_769
*1454 FILLER_120_77
*1455 FILLER_120_781
*1456 FILLER_120_793
*1457 FILLER_120_805
*1458 FILLER_120_811
*1459 FILLER_120_813
*1460 FILLER_120_825
*1461 FILLER_120_83
*1462 FILLER_120_837
*1463 FILLER_120_849
*1464 FILLER_120_85
*1465 FILLER_120_861
*1466 FILLER_120_867
*1467 FILLER_120_869
*1468 FILLER_120_881
*1469 FILLER_120_893
*1470 FILLER_120_905
*1471 FILLER_120_917
*1472 FILLER_120_923
*1473 FILLER_120_928
*1474 FILLER_120_940
*1475 FILLER_120_948
*1476 FILLER_120_953
*1477 FILLER_120_956
*1478 FILLER_120_968
*1479 FILLER_120_97
*1480 FILLER_120_979
*1481 FILLER_120_981
*1482 FILLER_120_993
*1483 FILLER_121_1006
*1484 FILLER_121_1009
*1485 FILLER_121_1021
*1486 FILLER_121_1033